                                   MODFLOW 6
                U.S. GEOLOGICAL SURVEY MODULAR HYDROLOGIC MODEL
                       GROUNDWATER TRANSPORT MODEL (GWT)
                        VERSION 6.4.1 Release 12/09/2022

   MODFLOW 6 compiled Dec 09 2022 18:18:37 with Intel(R) Fortran Intel(R) 64
   Compiler Classic for applications running on Intel(R) 64, Version 2021.7.0
                             Build 20220726_000000

This software has been approved for release by the U.S. Geological 
Survey (USGS). Although the software has been subjected to rigorous 
review, the USGS reserves the right to update the software as needed 
pursuant to further analysis and review. No warranty, expressed or 
implied, is made by the USGS or the U.S. Government as to the 
functionality of the software and related material nor shall the 
fact of release constitute any such warranty. Furthermore, the 
software is released on condition that neither the USGS nor the U.S. 
Government shall be held liable for any damages resulting from its 
authorized or unauthorized use. Also refer to the USGS Water 
Resources Software User Rights Notice for complete use, copyright, 
and distribution information.


As a work of the United States Government, this USGS product is 
in the public domain within the United States. You can copy, 
modify, distribute, and perform the work, even for commercial 
purposes, all without asking permission. Additionally, USGS 
waives copyright and related rights in the work worldwide 
through CC0 1.0 Universal Public Domain Dedication 
(https://creativecommons.org/publicdomain/zero/1.0/).

The following GNU Lesser General Public License (LGPL) libraries
are used in this USGS product:

    SPARSKIT version 2.0
      ilut, luson, and qsplit 
      (https://www-users.cse.umn.edu/~saad/software/SPARSKIT/)

    RCM - Reverse Cuthill McKee Ordering
      (https://people.math.sc.edu/Burkardt/f_src/rcm/rcm.html)

    BLAS - Basic Linear Algebra Subprograms Level 1
      (https://people.math.sc.edu/Burkardt/f_src/blas1_d/blas1_d.html)

    SPARSEKIT - Sparse Matrix Utility Package
      amux, dperm, dvperm, rperm, and cperm
      (https://people.sc.fsu.edu/~jburkardt/f77_src/sparsekit/sparsekit.html)

The following BSD-3 License libraries are used in this USGS product:

    Modern Fortran DAG Library
      Copyright (c) 2018, Jacob Williams
      All rights reserved.
      (https://github.com/jacobwilliams/daglib)

MODFLOW 6 compiler options: /Isrc\libmf6core.a.p /Isrc /I..\src
/Isrc\libmf6_external.a.p /MTd /nologo /warn:general /warn:truncated_source
/stand:f08 /Zi /traceback /O2 /fpe:0 /heap-arrays:0 /traceback /fpp
/Qdiag-disable:7416 /Qdiag-disable:7025 /Qdiag-disable:5268
/Fdsrc\libmf6core.a.p\Utilities_compilerversion.F90.pdb
/module:src\libmf6core.a.p
/Fosrc/libmf6core.a.p/Utilities_compilerversion.F90.obj /c

System command used to initiate simulation:
mf6  mfsim.nam

MODFLOW was compiled using uniform precision.

Real Variables
  KIND: 8
  TINY (smallest non-zero value):    2.225074-308
  HUGE (largest value):    1.797693+308
  PRECISION: 15
  SIZE IN BITS: 64

Integer Variables
  KIND: 4
  HUGE (largest value): 2147483647
  SIZE IN BITS: 32

Long Integer Variables
  KIND: 8
  HUGE (largest value): 9223372036854775807
  SIZE IN BITS: 64

Logical Variables
  KIND: 4
  SIZE IN BITS: 32
 

 OPENED sva_tm_t.dis
 FILE TYPE:DIS6                   UNIT 1016   STATUS:OLD                 
 FORMAT:FORMATTED              ACCESS:SEQUENTIAL          
 ACTION:READ                


 OPENED sva_tm_t.ic
 FILE TYPE:IC6                    UNIT 1017   STATUS:OLD                 
 FORMAT:FORMATTED              ACCESS:SEQUENTIAL          
 ACTION:READ                


 OPENED sva_tm_t.adv
 FILE TYPE:ADV6                   UNIT 1018   STATUS:OLD                 
 FORMAT:FORMATTED              ACCESS:SEQUENTIAL          
 ACTION:READ                


 OPENED sva_tm_t.dsp
 FILE TYPE:DSP6                   UNIT 1019   STATUS:OLD                 
 FORMAT:FORMATTED              ACCESS:SEQUENTIAL          
 ACTION:READ                


 OPENED sva_tm_t.mst
 FILE TYPE:MST6                   UNIT 1020   STATUS:OLD                 
 FORMAT:FORMATTED              ACCESS:SEQUENTIAL          
 ACTION:READ                


 OPENED sva_tm_t.ssm
 FILE TYPE:SSM6                   UNIT 1021   STATUS:OLD                 
 FORMAT:FORMATTED              ACCESS:SEQUENTIAL          
 ACTION:READ                


 OPENED sva_tm_t.oc
 FILE TYPE:OC6                    UNIT 1022   STATUS:OLD                 
 FORMAT:FORMATTED              ACCESS:SEQUENTIAL          
 ACTION:READ                


 OPENED sva_tm_t.obs
 FILE TYPE:OBS6                   UNIT 1023   STATUS:OLD                 
 FORMAT:FORMATTED              ACCESS:SEQUENTIAL          
 ACTION:READ                

 NAMEFILE OPTIONS:
    FLOWS WILL BE SAVED TO BUDGET FILE SPECIFIED IN OUTPUT CONTROL

 DIS -- STRUCTURED GRID DISCRETIZATION PACKAGE, VERSION 2 : 3/27/2014 - INPUT READ FROM UNIT 1016

 Loading input for SVA_TM_T/DIS
 # File generated by Flopy version 3.3.6 on 06/26/2023 at 16:14:30.
   NLAY = 1
   NROW = 50
   NCOL = 50
   DELR = .2000000000000000E-01
   DELC = .2000000000000000E-01
   TOP = .000000000000000
   BOTM = -1.000000000000000
   IDOMAIN = 1
 Loading input complete...


 DSP-- DISPERSION PACKAGE, VERSION 1, 1/24/2018 INPUT READ FROM UNIT 1019


 Loading input for SVA_TM_T/DSP
 # File generated by Flopy version 3.3.6 on 06/26/2023 at 16:14:30.
   XT3D_OFF = 1
   ALH = .5000000000000000E-02
   ATH1 = .5000000000000000E-03
 Loading input complete...

 Setting Discretization Options
 End Setting Discretization Options

 Setting Discretization Dimensions
    NLAY = 1
    NROW = 50
    NCOL = 50
 End Setting Discretization Dimensions

 Setting Discretization Griddata
    DELR set from input file
    DELC set from input file
    TOP set from input file
    BOTM set from input file
    IDOMAIN set from input file
 End Setting Discretization Griddata


 FMI -- FLOW MODEL INTERFACE, VERSION 1, 8/29/2017
  FLOWS PROVIDED BY A GWF MODEL IN THIS SIMULATION

 ADV-- ADVECTION PACKAGE, VERSION 1, 8/25/2017 INPUT READ FROM UNIT 1018


 # File generated by Flopy version 3.3.6 on 06/26/2023 at 16:14:30.
 PROCESSING ADVECTION OPTIONS
    ADVECTION WEIGHTING SCHEME HAS BEEN SET TO: TVD
 END OF ADVECTION OPTIONS
 Setting DSP Options
    XT3D formulation [0=INACTIVE, 1=ACTIVE, 3=ACTIVE RHS] set to: 0
 End Setting DSP Options

 Setting DSP Griddata
    ALH set from input file
    ATH1 set from input file
 End Setting DSP Griddata


 IC -- INITIAL CONDITIONS PACKAGE, VERSION 8, 3/28/2015 INPUT READ FROM UNIT 1017
 # File generated by Flopy version 3.3.6 on 06/26/2023 at 16:14:30.
 PROCESSING GRIDDATA

 INITIAL CONCENTRATION =   0.000000    
 END PROCESSING GRIDDATA

 MST -- MOBILE STORAGE AND TRANSFER PACKAGE, VERSION 1, 7/29/2020 INPUT READ FROM UNIT 1020


 # File generated by Flopy version 3.3.6 on 06/26/2023 at 16:14:30.
 PROCESSING MOBILE STORAGE AND TRANSFER OPTIONS
 END OF MOBILE STORAGE AND TRANSFER OPTIONS
 PROCESSING GRIDDATA

   MOBILE DOMAIN POROSITY =  0.2500000    
 END PROCESSING GRIDDATA

 SSM -- SOURCE-SINK MIXING PACKAGE, VERSION 1, 8/25/2017 INPUT READ FROM UNIT 1021


 # File generated by Flopy version 3.3.6 on 06/26/2023 at 16:14:30.
 PROCESSING SSM OPTIONS
 END OF SSM OPTIONS
 PROCESSING SOURCES
 AUX SOURCE DETECTED.
    USING AUX COLUMN 1 IN PACKAGE WEL2
 END PROCESSING SOURCES
 OPTIONAL FILEINPUT BLOCK NOT FOUND.  CONTINUING.

The observation utility is active for "SVA_TM_T"
 # File generated by Flopy version 3.3.6 on 06/26/2023 at 16:14:30.

Processing observation options:

Text output number of digits of precision set to:  4

      THE LAST TIME STEP WILL BE PRINTED
      THE LAST TIME STEP WILL BE PRINTED
 # File generated by Flopy version 3.3.6 on 06/26/2023 at 16:14:30.

 PROCESSING OC OPTIONS

    BUDGET INFORMATION WILL BE WRITTEN TO:
      UNIT NUMBER: 1030
      FILE NAME: sva_tm_t.cbc

 OPENED sva_tm_t.cbc
 FILE TYPE:DATA(BINARY)   UNIT 1030   STATUS:REPLACE             
 FORMAT:UNFORMATTED            ACCESS:STREAM              
 ACTION:READWRITE           

    CONCENTRATION INFORMATION WILL BE WRITTEN TO:
      UNIT NUMBER: 1031
      FILE NAME: sva_tm_t.ucn

 OPENED sva_tm_t.ucn
 FILE TYPE:DATA(BINARY)   UNIT 1031   STATUS:REPLACE             
 FORMAT:UNFORMATTED            ACCESS:STREAM              
 ACTION:READWRITE           

 END OF OC OPTIONS

start timestep kper="1" kstp="1" mode="normal"


 BEGIN READING OUTPUT CONTROL FOR STRESS PERIOD 1
      ALL TIME STEPS WILL BE SAVED
      ALL TIME STEPS WILL BE SAVED
      THE LAST TIME STEP WILL BE PRINTED
      ALL TIME STEPS WILL BE PRINTED

 END READING OUTPUT CONTROL FOR STRESS PERIOD 1
 UBDSV1 SAVING     FLOW-JA-FACE ON UNIT   1030 AT TIME STEP      1, STRESS PERIOD      1
 UBDSV1 SAVING  STORAGE-AQUEOUS ON UNIT   1030 AT TIME STEP      1, STRESS PERIOD      1
 UBDSV06 SAVING  SOURCE-SINK MIX IN MODEL SVA_TM_T         PACKAGE SVA_TM_T        CONNECTED TO MODEL SVA_TM_T         PACKAGE SSM              ON UNIT   1030 AT TIME STEP      1, STRESS PERIOD      1

 CONCENTRATION WILL BE SAVED ON UNIT 1031 AT END OF TIME STEP    1, STRESS PERIOD    1


  MASS BUDGET FOR ENTIRE MODEL AT END OF TIME STEP    1, STRESS PERIOD   1
  ---------------------------------------------------------------------------------------------------

     CUMULATIVE MASS      M       RATES FOR THIS TIME STEP      M/T          PACKAGE NAME    
     ------------------                 ------------------------                     ----------------

           IN:                                      IN:
           ---                                      ---
     STORAGE-AQUEOUS =       7.7972E-12       STORAGE-AQUEOUS =       3.8986E-12     MST                              
                 WEL =           0.0000                   WEL =           0.0000     SSM_WEL1                         
                 WEL =       1.0000E-03                   WEL =       5.0000E-04     SSM_WEL2                         

            TOTAL IN =       1.0000E-03              TOTAL IN =       5.0000E-04

          OUT:                                     OUT:
          ----                                     ----
     STORAGE-AQUEOUS =       1.0000E-03       STORAGE-AQUEOUS =       5.0000E-04     MST                              
                 WEL =       1.3260E-09                   WEL =       6.6299E-10     SSM_WEL1                         
                 WEL =           0.0000                   WEL =           0.0000     SSM_WEL2                         

           TOTAL OUT =       1.0000E-03             TOTAL OUT =       5.0000E-04

            IN - OUT =      -4.9429E-10              IN - OUT =      -2.4714E-10

 PERCENT DISCREPANCY =          -0.00     PERCENT DISCREPANCY =          -0.00




         TIME SUMMARY AT END OF TIME STEP    1 IN STRESS PERIOD    1
                    SECONDS     MINUTES      HOURS       DAYS        YEARS
                    -----------------------------------------------------------
   TIME STEP LENGTH 1.72800E+05  2880.0      48.000      2.0000     5.47570E-03
 STRESS PERIOD TIME 1.72800E+05  2880.0      48.000      2.0000     5.47570E-03
         TOTAL TIME 1.72800E+05  2880.0      48.000      2.0000     5.47570E-03


end timestep


start timestep kper="1" kstp="2" mode="normal"

 UBDSV1 SAVING     FLOW-JA-FACE ON UNIT   1030 AT TIME STEP      2, STRESS PERIOD      1
 UBDSV1 SAVING  STORAGE-AQUEOUS ON UNIT   1030 AT TIME STEP      2, STRESS PERIOD      1
 UBDSV06 SAVING  SOURCE-SINK MIX IN MODEL SVA_TM_T         PACKAGE SVA_TM_T        CONNECTED TO MODEL SVA_TM_T         PACKAGE SSM              ON UNIT   1030 AT TIME STEP      2, STRESS PERIOD      1

 CONCENTRATION WILL BE SAVED ON UNIT 1031 AT END OF TIME STEP    2, STRESS PERIOD    1


  MASS BUDGET FOR ENTIRE MODEL AT END OF TIME STEP    2, STRESS PERIOD   1
  ---------------------------------------------------------------------------------------------------

     CUMULATIVE MASS      M       RATES FOR THIS TIME STEP      M/T          PACKAGE NAME    
     ------------------                 ------------------------                     ----------------

           IN:                                      IN:
           ---                                      ---
     STORAGE-AQUEOUS =       9.7371E-12       STORAGE-AQUEOUS =       9.6996E-13     MST                              
                 WEL =           0.0000                   WEL =           0.0000     SSM_WEL1                         
                 WEL =       2.0000E-03                   WEL =       5.0000E-04     SSM_WEL2                         

            TOTAL IN =       2.0000E-03              TOTAL IN =       5.0000E-04

          OUT:                                     OUT:
          ----                                     ----
     STORAGE-AQUEOUS =       2.0000E-03       STORAGE-AQUEOUS =       4.9999E-04     MST                              
                 WEL =       1.4287E-08                   WEL =       6.4805E-09     SSM_WEL1                         
                 WEL =           0.0000                   WEL =           0.0000     SSM_WEL2                         

           TOTAL OUT =       2.0000E-03             TOTAL OUT =       5.0000E-04

            IN - OUT =      -1.7062E-10              IN - OUT =       1.6183E-10

 PERCENT DISCREPANCY =          -0.00     PERCENT DISCREPANCY =           0.00




         TIME SUMMARY AT END OF TIME STEP    2 IN STRESS PERIOD    1
                    SECONDS     MINUTES      HOURS       DAYS        YEARS
                    -----------------------------------------------------------
   TIME STEP LENGTH 1.72800E+05  2880.0      48.000      2.0000     5.47570E-03
 STRESS PERIOD TIME 3.45600E+05  5760.0      96.000      4.0000     1.09514E-02
         TOTAL TIME 3.45600E+05  5760.0      96.000      4.0000     1.09514E-02


end timestep


start timestep kper="1" kstp="3" mode="normal"

 UBDSV1 SAVING     FLOW-JA-FACE ON UNIT   1030 AT TIME STEP      3, STRESS PERIOD      1
 UBDSV1 SAVING  STORAGE-AQUEOUS ON UNIT   1030 AT TIME STEP      3, STRESS PERIOD      1
 UBDSV06 SAVING  SOURCE-SINK MIX IN MODEL SVA_TM_T         PACKAGE SVA_TM_T        CONNECTED TO MODEL SVA_TM_T         PACKAGE SSM              ON UNIT   1030 AT TIME STEP      3, STRESS PERIOD      1

 CONCENTRATION WILL BE SAVED ON UNIT 1031 AT END OF TIME STEP    3, STRESS PERIOD    1


  MASS BUDGET FOR ENTIRE MODEL AT END OF TIME STEP    3, STRESS PERIOD   1
  ---------------------------------------------------------------------------------------------------

     CUMULATIVE MASS      M       RATES FOR THIS TIME STEP      M/T          PACKAGE NAME    
     ------------------                 ------------------------                     ----------------

           IN:                                      IN:
           ---                                      ---
     STORAGE-AQUEOUS =       1.0562E-11       STORAGE-AQUEOUS =       4.1247E-13     MST                              
                 WEL =           0.0000                   WEL =           0.0000     SSM_WEL1                         
                 WEL =       3.0000E-03                   WEL =       5.0000E-04     SSM_WEL2                         

            TOTAL IN =       3.0000E-03              TOTAL IN =       5.0000E-04

          OUT:                                     OUT:
          ----                                     ----
     STORAGE-AQUEOUS =       2.9999E-03       STORAGE-AQUEOUS =       4.9996E-04     MST                              
                 WEL =       8.5013E-08                   WEL =       3.5363E-08     SSM_WEL1                         
                 WEL =           0.0000                   WEL =           0.0000     SSM_WEL2                         

           TOTAL OUT =       3.0000E-03             TOTAL OUT =       5.0000E-04

            IN - OUT =       1.0638E-09              IN - OUT =       6.1723E-10

 PERCENT DISCREPANCY =           0.00     PERCENT DISCREPANCY =           0.00




         TIME SUMMARY AT END OF TIME STEP    3 IN STRESS PERIOD    1
                    SECONDS     MINUTES      HOURS       DAYS        YEARS
                    -----------------------------------------------------------
   TIME STEP LENGTH 1.72800E+05  2880.0      48.000      2.0000     5.47570E-03
 STRESS PERIOD TIME 5.18400E+05  8640.0      144.00      6.0000     1.64271E-02
         TOTAL TIME 5.18400E+05  8640.0      144.00      6.0000     1.64271E-02


end timestep


start timestep kper="1" kstp="4" mode="normal"

 UBDSV1 SAVING     FLOW-JA-FACE ON UNIT   1030 AT TIME STEP      4, STRESS PERIOD      1
 UBDSV1 SAVING  STORAGE-AQUEOUS ON UNIT   1030 AT TIME STEP      4, STRESS PERIOD      1
 UBDSV06 SAVING  SOURCE-SINK MIX IN MODEL SVA_TM_T         PACKAGE SVA_TM_T        CONNECTED TO MODEL SVA_TM_T         PACKAGE SSM              ON UNIT   1030 AT TIME STEP      4, STRESS PERIOD      1

 CONCENTRATION WILL BE SAVED ON UNIT 1031 AT END OF TIME STEP    4, STRESS PERIOD    1


  MASS BUDGET FOR ENTIRE MODEL AT END OF TIME STEP    4, STRESS PERIOD   1
  ---------------------------------------------------------------------------------------------------

     CUMULATIVE MASS      M       RATES FOR THIS TIME STEP      M/T          PACKAGE NAME    
     ------------------                 ------------------------                     ----------------

           IN:                                      IN:
           ---                                      ---
     STORAGE-AQUEOUS =       1.0765E-11       STORAGE-AQUEOUS =       1.0137E-13     MST                              
                 WEL =           0.0000                   WEL =           0.0000     SSM_WEL1                         
                 WEL =       4.0000E-03                   WEL =       5.0000E-04     SSM_WEL2                         

            TOTAL IN =       4.0000E-03              TOTAL IN =       5.0000E-04

          OUT:                                     OUT:
          ----                                     ----
     STORAGE-AQUEOUS =       3.9996E-03       STORAGE-AQUEOUS =       4.9986E-04     MST                              
                 WEL =       3.5576E-07                   WEL =       1.3537E-07     SSM_WEL1                         
                 WEL =           0.0000                   WEL =           0.0000     SSM_WEL2                         

           TOTAL OUT =       4.0000E-03             TOTAL OUT =       5.0000E-04

            IN - OUT =       3.7005E-09              IN - OUT =       1.3183E-09

 PERCENT DISCREPANCY =           0.00     PERCENT DISCREPANCY =           0.00




         TIME SUMMARY AT END OF TIME STEP    4 IN STRESS PERIOD    1
                    SECONDS     MINUTES      HOURS       DAYS        YEARS
                    -----------------------------------------------------------
   TIME STEP LENGTH 1.72800E+05  2880.0      48.000      2.0000     5.47570E-03
 STRESS PERIOD TIME 6.91200E+05  11520.      192.00      8.0000     2.19028E-02
         TOTAL TIME 6.91200E+05  11520.      192.00      8.0000     2.19028E-02


end timestep


start timestep kper="1" kstp="5" mode="normal"

 UBDSV1 SAVING     FLOW-JA-FACE ON UNIT   1030 AT TIME STEP      5, STRESS PERIOD      1
 UBDSV1 SAVING  STORAGE-AQUEOUS ON UNIT   1030 AT TIME STEP      5, STRESS PERIOD      1
 UBDSV06 SAVING  SOURCE-SINK MIX IN MODEL SVA_TM_T         PACKAGE SVA_TM_T        CONNECTED TO MODEL SVA_TM_T         PACKAGE SSM              ON UNIT   1030 AT TIME STEP      5, STRESS PERIOD      1

 CONCENTRATION WILL BE SAVED ON UNIT 1031 AT END OF TIME STEP    5, STRESS PERIOD    1


  MASS BUDGET FOR ENTIRE MODEL AT END OF TIME STEP    5, STRESS PERIOD   1
  ---------------------------------------------------------------------------------------------------

     CUMULATIVE MASS      M       RATES FOR THIS TIME STEP      M/T          PACKAGE NAME    
     ------------------                 ------------------------                     ----------------

           IN:                                      IN:
           ---                                      ---
     STORAGE-AQUEOUS =       1.0858E-11       STORAGE-AQUEOUS =       4.6668E-14     MST                              
                 WEL =           0.0000                   WEL =           0.0000     SSM_WEL1                         
                 WEL =       5.0000E-03                   WEL =       5.0000E-04     SSM_WEL2                         

            TOTAL IN =       5.0000E-03              TOTAL IN =       5.0000E-04

          OUT:                                     OUT:
          ----                                     ----
     STORAGE-AQUEOUS =       4.9988E-03       STORAGE-AQUEOUS =       4.9959E-04     MST                              
                 WEL =       1.1640E-06                   WEL =       4.0410E-07     SSM_WEL1                         
                 WEL =           0.0000                   WEL =           0.0000     SSM_WEL2                         

           TOTAL OUT =       5.0000E-03             TOTAL OUT =       5.0000E-04

            IN - OUT =       6.8791E-09              IN - OUT =       1.5893E-09

 PERCENT DISCREPANCY =           0.00     PERCENT DISCREPANCY =           0.00




         TIME SUMMARY AT END OF TIME STEP    5 IN STRESS PERIOD    1
                    SECONDS     MINUTES      HOURS       DAYS        YEARS
                    -----------------------------------------------------------
   TIME STEP LENGTH 1.72800E+05  2880.0      48.000      2.0000     5.47570E-03
 STRESS PERIOD TIME 8.64000E+05  14400.      240.00      10.000     2.73785E-02
         TOTAL TIME 8.64000E+05  14400.      240.00      10.000     2.73785E-02


end timestep


start timestep kper="1" kstp="6" mode="normal"

 UBDSV1 SAVING     FLOW-JA-FACE ON UNIT   1030 AT TIME STEP      6, STRESS PERIOD      1
 UBDSV1 SAVING  STORAGE-AQUEOUS ON UNIT   1030 AT TIME STEP      6, STRESS PERIOD      1
 UBDSV06 SAVING  SOURCE-SINK MIX IN MODEL SVA_TM_T         PACKAGE SVA_TM_T        CONNECTED TO MODEL SVA_TM_T         PACKAGE SSM              ON UNIT   1030 AT TIME STEP      6, STRESS PERIOD      1

 CONCENTRATION WILL BE SAVED ON UNIT 1031 AT END OF TIME STEP    6, STRESS PERIOD    1


  MASS BUDGET FOR ENTIRE MODEL AT END OF TIME STEP    6, STRESS PERIOD   1
  ---------------------------------------------------------------------------------------------------

     CUMULATIVE MASS      M       RATES FOR THIS TIME STEP      M/T          PACKAGE NAME    
     ------------------                 ------------------------                     ----------------

           IN:                                      IN:
           ---                                      ---
     STORAGE-AQUEOUS =       1.0879E-11       STORAGE-AQUEOUS =       1.0434E-14     MST                              
                 WEL =           0.0000                   WEL =           0.0000     SSM_WEL1                         
                 WEL =       6.0000E-03                   WEL =       5.0000E-04     SSM_WEL2                         

            TOTAL IN =       6.0000E-03              TOTAL IN =       5.0000E-04

          OUT:                                     OUT:
          ----                                     ----
     STORAGE-AQUEOUS =       5.9968E-03       STORAGE-AQUEOUS =       4.9900E-04     MST                              
                 WEL =       3.1618E-06                   WEL =       9.9893E-07     SSM_WEL1                         
                 WEL =           0.0000                   WEL =           0.0000     SSM_WEL2                         

           TOTAL OUT =       6.0000E-03             TOTAL OUT =       5.0000E-04

            IN - OUT =       1.1259E-08              IN - OUT =       2.1900E-09

 PERCENT DISCREPANCY =           0.00     PERCENT DISCREPANCY =           0.00




         TIME SUMMARY AT END OF TIME STEP    6 IN STRESS PERIOD    1
                    SECONDS     MINUTES      HOURS       DAYS        YEARS
                    -----------------------------------------------------------
   TIME STEP LENGTH 1.72800E+05  2880.0      48.000      2.0000     5.47570E-03
 STRESS PERIOD TIME 1.03680E+06  17280.      288.00      12.000     3.28542E-02
         TOTAL TIME 1.03680E+06  17280.      288.00      12.000     3.28542E-02


end timestep


start timestep kper="1" kstp="7" mode="normal"

 UBDSV1 SAVING     FLOW-JA-FACE ON UNIT   1030 AT TIME STEP      7, STRESS PERIOD      1
 UBDSV1 SAVING  STORAGE-AQUEOUS ON UNIT   1030 AT TIME STEP      7, STRESS PERIOD      1
 UBDSV06 SAVING  SOURCE-SINK MIX IN MODEL SVA_TM_T         PACKAGE SVA_TM_T        CONNECTED TO MODEL SVA_TM_T         PACKAGE SSM              ON UNIT   1030 AT TIME STEP      7, STRESS PERIOD      1

 CONCENTRATION WILL BE SAVED ON UNIT 1031 AT END OF TIME STEP    7, STRESS PERIOD    1


  MASS BUDGET FOR ENTIRE MODEL AT END OF TIME STEP    7, STRESS PERIOD   1
  ---------------------------------------------------------------------------------------------------

     CUMULATIVE MASS      M       RATES FOR THIS TIME STEP      M/T          PACKAGE NAME    
     ------------------                 ------------------------                     ----------------

           IN:                                      IN:
           ---                                      ---
     STORAGE-AQUEOUS =       1.0898E-11       STORAGE-AQUEOUS =       9.7682E-15     MST                              
                 WEL =           0.0000                   WEL =           0.0000     SSM_WEL1                         
                 WEL =       7.0000E-03                   WEL =       5.0000E-04     SSM_WEL2                         

            TOTAL IN =       7.0000E-03              TOTAL IN =       5.0000E-04

          OUT:                                     OUT:
          ----                                     ----
     STORAGE-AQUEOUS =       6.9926E-03       STORAGE-AQUEOUS =       4.9787E-04     MST                              
                 WEL =       7.4157E-06                   WEL =       2.1270E-06     SSM_WEL1                         
                 WEL =           0.0000                   WEL =           0.0000     SSM_WEL2                         

           TOTAL OUT =       7.0000E-03             TOTAL OUT =       5.0000E-04

            IN - OUT =       1.3895E-08              IN - OUT =       1.3179E-09

 PERCENT DISCREPANCY =           0.00     PERCENT DISCREPANCY =           0.00




         TIME SUMMARY AT END OF TIME STEP    7 IN STRESS PERIOD    1
                    SECONDS     MINUTES      HOURS       DAYS        YEARS
                    -----------------------------------------------------------
   TIME STEP LENGTH 1.72800E+05  2880.0      48.000      2.0000     5.47570E-03
 STRESS PERIOD TIME 1.20960E+06  20160.      336.00      14.000     3.83299E-02
         TOTAL TIME 1.20960E+06  20160.      336.00      14.000     3.83299E-02


end timestep


start timestep kper="1" kstp="8" mode="normal"

 UBDSV1 SAVING     FLOW-JA-FACE ON UNIT   1030 AT TIME STEP      8, STRESS PERIOD      1
 UBDSV1 SAVING  STORAGE-AQUEOUS ON UNIT   1030 AT TIME STEP      8, STRESS PERIOD      1
 UBDSV06 SAVING  SOURCE-SINK MIX IN MODEL SVA_TM_T         PACKAGE SVA_TM_T        CONNECTED TO MODEL SVA_TM_T         PACKAGE SSM              ON UNIT   1030 AT TIME STEP      8, STRESS PERIOD      1

 CONCENTRATION WILL BE SAVED ON UNIT 1031 AT END OF TIME STEP    8, STRESS PERIOD    1


  MASS BUDGET FOR ENTIRE MODEL AT END OF TIME STEP    8, STRESS PERIOD   1
  ---------------------------------------------------------------------------------------------------

     CUMULATIVE MASS      M       RATES FOR THIS TIME STEP      M/T          PACKAGE NAME    
     ------------------                 ------------------------                     ----------------

           IN:                                      IN:
           ---                                      ---
     STORAGE-AQUEOUS =       1.0901E-11       STORAGE-AQUEOUS =       1.1910E-15     MST                              
                 WEL =           0.0000                   WEL =           0.0000     SSM_WEL1                         
                 WEL =       8.0000E-03                   WEL =       5.0000E-04     SSM_WEL2                         

            TOTAL IN =       8.0000E-03              TOTAL IN =       5.0000E-04

          OUT:                                     OUT:
          ----                                     ----
     STORAGE-AQUEOUS =       7.9845E-03       STORAGE-AQUEOUS =       4.9599E-04     MST                              
                 WEL =       1.5439E-05                   WEL =       4.0118E-06     SSM_WEL1                         
                 WEL =           0.0000                   WEL =           0.0000     SSM_WEL2                         

           TOTAL OUT =       8.0000E-03             TOTAL OUT =       5.0000E-04

            IN - OUT =       1.8381E-08              IN - OUT =       2.2429E-09

 PERCENT DISCREPANCY =           0.00     PERCENT DISCREPANCY =           0.00




         TIME SUMMARY AT END OF TIME STEP    8 IN STRESS PERIOD    1
                    SECONDS     MINUTES      HOURS       DAYS        YEARS
                    -----------------------------------------------------------
   TIME STEP LENGTH 1.72800E+05  2880.0      48.000      2.0000     5.47570E-03
 STRESS PERIOD TIME 1.38240E+06  23040.      384.00      16.000     4.38056E-02
         TOTAL TIME 1.38240E+06  23040.      384.00      16.000     4.38056E-02


end timestep


start timestep kper="1" kstp="9" mode="normal"

 UBDSV1 SAVING     FLOW-JA-FACE ON UNIT   1030 AT TIME STEP      9, STRESS PERIOD      1
 UBDSV1 SAVING  STORAGE-AQUEOUS ON UNIT   1030 AT TIME STEP      9, STRESS PERIOD      1
 UBDSV06 SAVING  SOURCE-SINK MIX IN MODEL SVA_TM_T         PACKAGE SVA_TM_T        CONNECTED TO MODEL SVA_TM_T         PACKAGE SSM              ON UNIT   1030 AT TIME STEP      9, STRESS PERIOD      1

 CONCENTRATION WILL BE SAVED ON UNIT 1031 AT END OF TIME STEP    9, STRESS PERIOD    1


  MASS BUDGET FOR ENTIRE MODEL AT END OF TIME STEP    9, STRESS PERIOD   1
  ---------------------------------------------------------------------------------------------------

     CUMULATIVE MASS      M       RATES FOR THIS TIME STEP      M/T          PACKAGE NAME    
     ------------------                 ------------------------                     ----------------

           IN:                                      IN:
           ---                                      ---
     STORAGE-AQUEOUS =       1.0903E-11       STORAGE-AQUEOUS =       9.7839E-16     MST                              
                 WEL =           0.0000                   WEL =           0.0000     SSM_WEL1                         
                 WEL =       9.0000E-03                   WEL =       5.0000E-04     SSM_WEL2                         

            TOTAL IN =       9.0000E-03              TOTAL IN =       5.0000E-04

          OUT:                                     OUT:
          ----                                     ----
     STORAGE-AQUEOUS =       8.9708E-03       STORAGE-AQUEOUS =       4.9315E-04     MST                              
                 WEL =       2.9135E-05                   WEL =       6.8479E-06     SSM_WEL1                         
                 WEL =           0.0000                   WEL =           0.0000     SSM_WEL2                         

           TOTAL OUT =       9.0000E-03             TOTAL OUT =       5.0000E-04

            IN - OUT =       2.3048E-08              IN - OUT =       2.3335E-09

 PERCENT DISCREPANCY =           0.00     PERCENT DISCREPANCY =           0.00




         TIME SUMMARY AT END OF TIME STEP    9 IN STRESS PERIOD    1
                    SECONDS     MINUTES      HOURS       DAYS        YEARS
                    -----------------------------------------------------------
   TIME STEP LENGTH 1.72800E+05  2880.0      48.000      2.0000     5.47570E-03
 STRESS PERIOD TIME 1.55520E+06  25920.      432.00      18.000     4.92813E-02
         TOTAL TIME 1.55520E+06  25920.      432.00      18.000     4.92813E-02


end timestep


start timestep kper="1" kstp="10" mode="normal"

 UBDSV1 SAVING     FLOW-JA-FACE ON UNIT   1030 AT TIME STEP     10, STRESS PERIOD      1
 UBDSV1 SAVING  STORAGE-AQUEOUS ON UNIT   1030 AT TIME STEP     10, STRESS PERIOD      1
 UBDSV06 SAVING  SOURCE-SINK MIX IN MODEL SVA_TM_T         PACKAGE SVA_TM_T        CONNECTED TO MODEL SVA_TM_T         PACKAGE SSM              ON UNIT   1030 AT TIME STEP     10, STRESS PERIOD      1

 CONCENTRATION WILL BE SAVED ON UNIT 1031 AT END OF TIME STEP   10, STRESS PERIOD    1


  MASS BUDGET FOR ENTIRE MODEL AT END OF TIME STEP   10, STRESS PERIOD   1
  ---------------------------------------------------------------------------------------------------

     CUMULATIVE MASS      M       RATES FOR THIS TIME STEP      M/T          PACKAGE NAME    
     ------------------                 ------------------------                     ----------------

           IN:                                      IN:
           ---                                      ---
     STORAGE-AQUEOUS =       1.0903E-11       STORAGE-AQUEOUS =       4.5827E-17     MST                              
                 WEL =           0.0000                   WEL =           0.0000     SSM_WEL1                         
                 WEL =       1.0000E-02                   WEL =       5.0000E-04     SSM_WEL2                         

            TOTAL IN =       1.0000E-02              TOTAL IN =       5.0000E-04

          OUT:                                     OUT:
          ----                                     ----
     STORAGE-AQUEOUS =       9.9493E-03       STORAGE-AQUEOUS =       4.8924E-04     MST                              
                 WEL =       5.0654E-05                   WEL =       1.0759E-05     SSM_WEL1                         
                 WEL =           0.0000                   WEL =           0.0000     SSM_WEL2                         

           TOTAL OUT =       1.0000E-02             TOTAL OUT =       5.0000E-04

            IN - OUT =       2.7208E-08              IN - OUT =       2.0803E-09

 PERCENT DISCREPANCY =           0.00     PERCENT DISCREPANCY =           0.00




         TIME SUMMARY AT END OF TIME STEP   10 IN STRESS PERIOD    1
                    SECONDS     MINUTES      HOURS       DAYS        YEARS
                    -----------------------------------------------------------
   TIME STEP LENGTH 1.72800E+05  2880.0      48.000      2.0000     5.47570E-03
 STRESS PERIOD TIME 1.72800E+06  28800.      480.00      20.000     5.47570E-02
         TOTAL TIME 1.72800E+06  28800.      480.00      20.000     5.47570E-02


end timestep


start timestep kper="1" kstp="11" mode="normal"

 UBDSV1 SAVING     FLOW-JA-FACE ON UNIT   1030 AT TIME STEP     11, STRESS PERIOD      1
 UBDSV1 SAVING  STORAGE-AQUEOUS ON UNIT   1030 AT TIME STEP     11, STRESS PERIOD      1
 UBDSV06 SAVING  SOURCE-SINK MIX IN MODEL SVA_TM_T         PACKAGE SVA_TM_T        CONNECTED TO MODEL SVA_TM_T         PACKAGE SSM              ON UNIT   1030 AT TIME STEP     11, STRESS PERIOD      1

 CONCENTRATION WILL BE SAVED ON UNIT 1031 AT END OF TIME STEP   11, STRESS PERIOD    1


  MASS BUDGET FOR ENTIRE MODEL AT END OF TIME STEP   11, STRESS PERIOD   1
  ---------------------------------------------------------------------------------------------------

     CUMULATIVE MASS      M       RATES FOR THIS TIME STEP      M/T          PACKAGE NAME    
     ------------------                 ------------------------                     ----------------

           IN:                                      IN:
           ---                                      ---
     STORAGE-AQUEOUS =       1.0903E-11       STORAGE-AQUEOUS =       6.8784E-17     MST                              
                 WEL =           0.0000                   WEL =           0.0000     SSM_WEL1                         
                 WEL =       1.1000E-02                   WEL =       5.0000E-04     SSM_WEL2                         

            TOTAL IN =       1.1000E-02              TOTAL IN =       5.0000E-04

          OUT:                                     OUT:
          ----                                     ----
     STORAGE-AQUEOUS =       1.0918E-02       STORAGE-AQUEOUS =       4.8422E-04     MST                              
                 WEL =       8.2208E-05                   WEL =       1.5777E-05     SSM_WEL1                         
                 WEL =           0.0000                   WEL =           0.0000     SSM_WEL2                         

           TOTAL OUT =       1.1000E-02             TOTAL OUT =       5.0000E-04

            IN - OUT =       3.0661E-08              IN - OUT =       1.7264E-09

 PERCENT DISCREPANCY =           0.00     PERCENT DISCREPANCY =           0.00




         TIME SUMMARY AT END OF TIME STEP   11 IN STRESS PERIOD    1
                    SECONDS     MINUTES      HOURS       DAYS        YEARS
                    -----------------------------------------------------------
   TIME STEP LENGTH 1.72800E+05  2880.0      48.000      2.0000     5.47570E-03
 STRESS PERIOD TIME 1.90080E+06  31680.      528.00      22.000     6.02327E-02
         TOTAL TIME 1.90080E+06  31680.      528.00      22.000     6.02327E-02


end timestep


start timestep kper="1" kstp="12" mode="normal"

 UBDSV1 SAVING     FLOW-JA-FACE ON UNIT   1030 AT TIME STEP     12, STRESS PERIOD      1
 UBDSV1 SAVING  STORAGE-AQUEOUS ON UNIT   1030 AT TIME STEP     12, STRESS PERIOD      1
 UBDSV06 SAVING  SOURCE-SINK MIX IN MODEL SVA_TM_T         PACKAGE SVA_TM_T        CONNECTED TO MODEL SVA_TM_T         PACKAGE SSM              ON UNIT   1030 AT TIME STEP     12, STRESS PERIOD      1

 CONCENTRATION WILL BE SAVED ON UNIT 1031 AT END OF TIME STEP   12, STRESS PERIOD    1


  MASS BUDGET FOR ENTIRE MODEL AT END OF TIME STEP   12, STRESS PERIOD   1
  ---------------------------------------------------------------------------------------------------

     CUMULATIVE MASS      M       RATES FOR THIS TIME STEP      M/T          PACKAGE NAME    
     ------------------                 ------------------------                     ----------------

           IN:                                      IN:
           ---                                      ---
     STORAGE-AQUEOUS =       1.0903E-11       STORAGE-AQUEOUS =       1.4919E-17     MST                              
                 WEL =           0.0000                   WEL =           0.0000     SSM_WEL1                         
                 WEL =       1.2000E-02                   WEL =       5.0000E-04     SSM_WEL2                         

            TOTAL IN =       1.2000E-02              TOTAL IN =       5.0000E-04

          OUT:                                     OUT:
          ----                                     ----
     STORAGE-AQUEOUS =       1.1874E-02       STORAGE-AQUEOUS =       4.7815E-04     MST                              
                 WEL =       1.2590E-04                   WEL =       2.1844E-05     SSM_WEL1                         
                 WEL =           0.0000                   WEL =           0.0000     SSM_WEL2                         

           TOTAL OUT =       1.2000E-02             TOTAL OUT =       5.0000E-04

            IN - OUT =       3.3044E-08              IN - OUT =       1.1913E-09

 PERCENT DISCREPANCY =           0.00     PERCENT DISCREPANCY =           0.00




         TIME SUMMARY AT END OF TIME STEP   12 IN STRESS PERIOD    1
                    SECONDS     MINUTES      HOURS       DAYS        YEARS
                    -----------------------------------------------------------
   TIME STEP LENGTH 1.72800E+05  2880.0      48.000      2.0000     5.47570E-03
 STRESS PERIOD TIME 2.07360E+06  34560.      576.00      24.000     6.57084E-02
         TOTAL TIME 2.07360E+06  34560.      576.00      24.000     6.57084E-02


end timestep


start timestep kper="1" kstp="13" mode="normal"

 UBDSV1 SAVING     FLOW-JA-FACE ON UNIT   1030 AT TIME STEP     13, STRESS PERIOD      1
 UBDSV1 SAVING  STORAGE-AQUEOUS ON UNIT   1030 AT TIME STEP     13, STRESS PERIOD      1
 UBDSV06 SAVING  SOURCE-SINK MIX IN MODEL SVA_TM_T         PACKAGE SVA_TM_T        CONNECTED TO MODEL SVA_TM_T         PACKAGE SSM              ON UNIT   1030 AT TIME STEP     13, STRESS PERIOD      1

 CONCENTRATION WILL BE SAVED ON UNIT 1031 AT END OF TIME STEP   13, STRESS PERIOD    1


  MASS BUDGET FOR ENTIRE MODEL AT END OF TIME STEP   13, STRESS PERIOD   1
  ---------------------------------------------------------------------------------------------------

     CUMULATIVE MASS      M       RATES FOR THIS TIME STEP      M/T          PACKAGE NAME    
     ------------------                 ------------------------                     ----------------

           IN:                                      IN:
           ---                                      ---
     STORAGE-AQUEOUS =       1.0903E-11       STORAGE-AQUEOUS =       8.4752E-18     MST                              
                 WEL =           0.0000                   WEL =           0.0000     SSM_WEL1                         
                 WEL =       1.3000E-02                   WEL =       5.0000E-04     SSM_WEL2                         

            TOTAL IN =       1.3000E-02              TOTAL IN =       5.0000E-04

          OUT:                                     OUT:
          ----                                     ----
     STORAGE-AQUEOUS =       1.2816E-02       STORAGE-AQUEOUS =       4.7117E-04     MST                              
                 WEL =       1.8356E-04                   WEL =       2.8832E-05     SSM_WEL1                         
                 WEL =           0.0000                   WEL =           0.0000     SSM_WEL2                         

           TOTAL OUT =       1.3000E-02             TOTAL OUT =       5.0000E-04

            IN - OUT =       3.6852E-08              IN - OUT =       1.9040E-09

 PERCENT DISCREPANCY =           0.00     PERCENT DISCREPANCY =           0.00




         TIME SUMMARY AT END OF TIME STEP   13 IN STRESS PERIOD    1
                    SECONDS     MINUTES      HOURS       DAYS        YEARS
                    -----------------------------------------------------------
   TIME STEP LENGTH 1.72800E+05  2880.0      48.000      2.0000     5.47570E-03
 STRESS PERIOD TIME 2.24640E+06  37440.      624.00      26.000     7.11841E-02
         TOTAL TIME 2.24640E+06  37440.      624.00      26.000     7.11841E-02


end timestep


start timestep kper="1" kstp="14" mode="normal"

 UBDSV1 SAVING     FLOW-JA-FACE ON UNIT   1030 AT TIME STEP     14, STRESS PERIOD      1
 UBDSV1 SAVING  STORAGE-AQUEOUS ON UNIT   1030 AT TIME STEP     14, STRESS PERIOD      1
 UBDSV06 SAVING  SOURCE-SINK MIX IN MODEL SVA_TM_T         PACKAGE SVA_TM_T        CONNECTED TO MODEL SVA_TM_T         PACKAGE SSM              ON UNIT   1030 AT TIME STEP     14, STRESS PERIOD      1

 CONCENTRATION WILL BE SAVED ON UNIT 1031 AT END OF TIME STEP   14, STRESS PERIOD    1


  MASS BUDGET FOR ENTIRE MODEL AT END OF TIME STEP   14, STRESS PERIOD   1
  ---------------------------------------------------------------------------------------------------

     CUMULATIVE MASS      M       RATES FOR THIS TIME STEP      M/T          PACKAGE NAME    
     ------------------                 ------------------------                     ----------------

           IN:                                      IN:
           ---                                      ---
     STORAGE-AQUEOUS =       1.0903E-11       STORAGE-AQUEOUS =       6.1815E-18     MST                              
                 WEL =           0.0000                   WEL =           0.0000     SSM_WEL1                         
                 WEL =       1.4000E-02                   WEL =       5.0000E-04     SSM_WEL2                         

            TOTAL IN =       1.4000E-02              TOTAL IN =       5.0000E-04

          OUT:                                     OUT:
          ----                                     ----
     STORAGE-AQUEOUS =       1.3743E-02       STORAGE-AQUEOUS =       4.6343E-04     MST                              
                 WEL =       2.5669E-04                   WEL =       3.6566E-05     SSM_WEL1                         
                 WEL =           0.0000                   WEL =           0.0000     SSM_WEL2                         

           TOTAL OUT =       1.4000E-02             TOTAL OUT =       5.0000E-04

            IN - OUT =       4.0892E-08              IN - OUT =       2.0199E-09

 PERCENT DISCREPANCY =           0.00     PERCENT DISCREPANCY =           0.00




         TIME SUMMARY AT END OF TIME STEP   14 IN STRESS PERIOD    1
                    SECONDS     MINUTES      HOURS       DAYS        YEARS
                    -----------------------------------------------------------
   TIME STEP LENGTH 1.72800E+05  2880.0      48.000      2.0000     5.47570E-03
 STRESS PERIOD TIME 2.41920E+06  40320.      672.00      28.000     7.66598E-02
         TOTAL TIME 2.41920E+06  40320.      672.00      28.000     7.66598E-02


end timestep


start timestep kper="1" kstp="15" mode="normal"

 UBDSV1 SAVING     FLOW-JA-FACE ON UNIT   1030 AT TIME STEP     15, STRESS PERIOD      1
 UBDSV1 SAVING  STORAGE-AQUEOUS ON UNIT   1030 AT TIME STEP     15, STRESS PERIOD      1
 UBDSV06 SAVING  SOURCE-SINK MIX IN MODEL SVA_TM_T         PACKAGE SVA_TM_T        CONNECTED TO MODEL SVA_TM_T         PACKAGE SSM              ON UNIT   1030 AT TIME STEP     15, STRESS PERIOD      1

 CONCENTRATION WILL BE SAVED ON UNIT 1031 AT END OF TIME STEP   15, STRESS PERIOD    1


  MASS BUDGET FOR ENTIRE MODEL AT END OF TIME STEP   15, STRESS PERIOD   1
  ---------------------------------------------------------------------------------------------------

     CUMULATIVE MASS      M       RATES FOR THIS TIME STEP      M/T          PACKAGE NAME    
     ------------------                 ------------------------                     ----------------

           IN:                                      IN:
           ---                                      ---
     STORAGE-AQUEOUS =       1.0903E-11       STORAGE-AQUEOUS =       1.0258E-17     MST                              
                 WEL =           0.0000                   WEL =           0.0000     SSM_WEL1                         
                 WEL =       1.5000E-02                   WEL =       5.0000E-04     SSM_WEL2                         

            TOTAL IN =       1.5000E-02              TOTAL IN =       5.0000E-04

          OUT:                                     OUT:
          ----                                     ----
     STORAGE-AQUEOUS =       1.4654E-02       STORAGE-AQUEOUS =       4.5519E-04     MST                              
                 WEL =       3.4632E-04                   WEL =       4.4813E-05     SSM_WEL1                         
                 WEL =           0.0000                   WEL =           0.0000     SSM_WEL2                         

           TOTAL OUT =       1.5000E-02             TOTAL OUT =       5.0000E-04

            IN - OUT =       4.2286E-08              IN - OUT =       6.9701E-10

 PERCENT DISCREPANCY =           0.00     PERCENT DISCREPANCY =           0.00




         TIME SUMMARY AT END OF TIME STEP   15 IN STRESS PERIOD    1
                    SECONDS     MINUTES      HOURS       DAYS        YEARS
                    -----------------------------------------------------------
   TIME STEP LENGTH 1.72800E+05  2880.0      48.000      2.0000     5.47570E-03
 STRESS PERIOD TIME 2.59200E+06  43200.      720.00      30.000     8.21355E-02
         TOTAL TIME 2.59200E+06  43200.      720.00      30.000     8.21355E-02


end timestep


start timestep kper="1" kstp="16" mode="normal"

 UBDSV1 SAVING     FLOW-JA-FACE ON UNIT   1030 AT TIME STEP     16, STRESS PERIOD      1
 UBDSV1 SAVING  STORAGE-AQUEOUS ON UNIT   1030 AT TIME STEP     16, STRESS PERIOD      1
 UBDSV06 SAVING  SOURCE-SINK MIX IN MODEL SVA_TM_T         PACKAGE SVA_TM_T        CONNECTED TO MODEL SVA_TM_T         PACKAGE SSM              ON UNIT   1030 AT TIME STEP     16, STRESS PERIOD      1

 CONCENTRATION WILL BE SAVED ON UNIT 1031 AT END OF TIME STEP   16, STRESS PERIOD    1


  MASS BUDGET FOR ENTIRE MODEL AT END OF TIME STEP   16, STRESS PERIOD   1
  ---------------------------------------------------------------------------------------------------

     CUMULATIVE MASS      M       RATES FOR THIS TIME STEP      M/T          PACKAGE NAME    
     ------------------                 ------------------------                     ----------------

           IN:                                      IN:
           ---                                      ---
     STORAGE-AQUEOUS =       1.0903E-11       STORAGE-AQUEOUS =       1.2881E-17     MST                              
                 WEL =           0.0000                   WEL =           0.0000     SSM_WEL1                         
                 WEL =       1.6000E-02                   WEL =       5.0000E-04     SSM_WEL2                         

            TOTAL IN =       1.6000E-02              TOTAL IN =       5.0000E-04

          OUT:                                     OUT:
          ----                                     ----
     STORAGE-AQUEOUS =       1.5547E-02       STORAGE-AQUEOUS =       4.4665E-04     MST                              
                 WEL =       4.5301E-04                   WEL =       5.3347E-05     SSM_WEL1                         
                 WEL =           0.0000                   WEL =           0.0000     SSM_WEL2                         

           TOTAL OUT =       1.6000E-02             TOTAL OUT =       5.0000E-04

            IN - OUT =       4.3948E-08              IN - OUT =       8.3104E-10

 PERCENT DISCREPANCY =           0.00     PERCENT DISCREPANCY =           0.00




         TIME SUMMARY AT END OF TIME STEP   16 IN STRESS PERIOD    1
                    SECONDS     MINUTES      HOURS       DAYS        YEARS
                    -----------------------------------------------------------
   TIME STEP LENGTH 1.72800E+05  2880.0      48.000      2.0000     5.47570E-03
 STRESS PERIOD TIME 2.76480E+06  46080.      768.00      32.000     8.76112E-02
         TOTAL TIME 2.76480E+06  46080.      768.00      32.000     8.76112E-02


end timestep


start timestep kper="1" kstp="17" mode="normal"

 UBDSV1 SAVING     FLOW-JA-FACE ON UNIT   1030 AT TIME STEP     17, STRESS PERIOD      1
 UBDSV1 SAVING  STORAGE-AQUEOUS ON UNIT   1030 AT TIME STEP     17, STRESS PERIOD      1
 UBDSV06 SAVING  SOURCE-SINK MIX IN MODEL SVA_TM_T         PACKAGE SVA_TM_T        CONNECTED TO MODEL SVA_TM_T         PACKAGE SSM              ON UNIT   1030 AT TIME STEP     17, STRESS PERIOD      1

 CONCENTRATION WILL BE SAVED ON UNIT 1031 AT END OF TIME STEP   17, STRESS PERIOD    1


  MASS BUDGET FOR ENTIRE MODEL AT END OF TIME STEP   17, STRESS PERIOD   1
  ---------------------------------------------------------------------------------------------------

     CUMULATIVE MASS      M       RATES FOR THIS TIME STEP      M/T          PACKAGE NAME    
     ------------------                 ------------------------                     ----------------

           IN:                                      IN:
           ---                                      ---
     STORAGE-AQUEOUS =       1.0903E-11       STORAGE-AQUEOUS =       1.2925E-17     MST                              
                 WEL =           0.0000                   WEL =           0.0000     SSM_WEL1                         
                 WEL =       1.7000E-02                   WEL =       5.0000E-04     SSM_WEL2                         

            TOTAL IN =       1.7000E-02              TOTAL IN =       5.0000E-04

          OUT:                                     OUT:
          ----                                     ----
     STORAGE-AQUEOUS =       1.6423E-02       STORAGE-AQUEOUS =       4.3798E-04     MST                              
                 WEL =       5.7706E-04                   WEL =       6.2022E-05     SSM_WEL1                         
                 WEL =           0.0000                   WEL =           0.0000     SSM_WEL2                         

           TOTAL OUT =       1.7000E-02             TOTAL OUT =       5.0000E-04

            IN - OUT =       4.5613E-08              IN - OUT =       8.3267E-10

 PERCENT DISCREPANCY =           0.00     PERCENT DISCREPANCY =           0.00




         TIME SUMMARY AT END OF TIME STEP   17 IN STRESS PERIOD    1
                    SECONDS     MINUTES      HOURS       DAYS        YEARS
                    -----------------------------------------------------------
   TIME STEP LENGTH 1.72800E+05  2880.0      48.000      2.0000     5.47570E-03
 STRESS PERIOD TIME 2.93760E+06  48960.      816.00      34.000     9.30869E-02
         TOTAL TIME 2.93760E+06  48960.      816.00      34.000     9.30869E-02


end timestep


start timestep kper="1" kstp="18" mode="normal"

 UBDSV1 SAVING     FLOW-JA-FACE ON UNIT   1030 AT TIME STEP     18, STRESS PERIOD      1
 UBDSV1 SAVING  STORAGE-AQUEOUS ON UNIT   1030 AT TIME STEP     18, STRESS PERIOD      1
 UBDSV06 SAVING  SOURCE-SINK MIX IN MODEL SVA_TM_T         PACKAGE SVA_TM_T        CONNECTED TO MODEL SVA_TM_T         PACKAGE SSM              ON UNIT   1030 AT TIME STEP     18, STRESS PERIOD      1

 CONCENTRATION WILL BE SAVED ON UNIT 1031 AT END OF TIME STEP   18, STRESS PERIOD    1


  MASS BUDGET FOR ENTIRE MODEL AT END OF TIME STEP   18, STRESS PERIOD   1
  ---------------------------------------------------------------------------------------------------

     CUMULATIVE MASS      M       RATES FOR THIS TIME STEP      M/T          PACKAGE NAME    
     ------------------                 ------------------------                     ----------------

           IN:                                      IN:
           ---                                      ---
     STORAGE-AQUEOUS =       1.0903E-11       STORAGE-AQUEOUS =       8.5780E-18     MST                              
                 WEL =           0.0000                   WEL =           0.0000     SSM_WEL1                         
                 WEL =       1.8000E-02                   WEL =       5.0000E-04     SSM_WEL2                         

            TOTAL IN =       1.8000E-02              TOTAL IN =       5.0000E-04

          OUT:                                     OUT:
          ----                                     ----
     STORAGE-AQUEOUS =       1.7281E-02       STORAGE-AQUEOUS =       4.2923E-04     MST                              
                 WEL =       7.1859E-04                   WEL =       7.0766E-05     SSM_WEL1                         
                 WEL =           0.0000                   WEL =           0.0000     SSM_WEL2                         

           TOTAL OUT =       1.8000E-02             TOTAL OUT =       5.0000E-04

            IN - OUT =       4.6739E-08              IN - OUT =       5.6283E-10

 PERCENT DISCREPANCY =           0.00     PERCENT DISCREPANCY =           0.00




         TIME SUMMARY AT END OF TIME STEP   18 IN STRESS PERIOD    1
                    SECONDS     MINUTES      HOURS       DAYS        YEARS
                    -----------------------------------------------------------
   TIME STEP LENGTH 1.72800E+05  2880.0      48.000      2.0000     5.47570E-03
 STRESS PERIOD TIME 3.11040E+06  51840.      864.00      36.000     9.85626E-02
         TOTAL TIME 3.11040E+06  51840.      864.00      36.000     9.85626E-02


end timestep


start timestep kper="1" kstp="19" mode="normal"

 UBDSV1 SAVING     FLOW-JA-FACE ON UNIT   1030 AT TIME STEP     19, STRESS PERIOD      1
 UBDSV1 SAVING  STORAGE-AQUEOUS ON UNIT   1030 AT TIME STEP     19, STRESS PERIOD      1
 UBDSV06 SAVING  SOURCE-SINK MIX IN MODEL SVA_TM_T         PACKAGE SVA_TM_T        CONNECTED TO MODEL SVA_TM_T         PACKAGE SSM              ON UNIT   1030 AT TIME STEP     19, STRESS PERIOD      1

 CONCENTRATION WILL BE SAVED ON UNIT 1031 AT END OF TIME STEP   19, STRESS PERIOD    1


  MASS BUDGET FOR ENTIRE MODEL AT END OF TIME STEP   19, STRESS PERIOD   1
  ---------------------------------------------------------------------------------------------------

     CUMULATIVE MASS      M       RATES FOR THIS TIME STEP      M/T          PACKAGE NAME    
     ------------------                 ------------------------                     ----------------

           IN:                                      IN:
           ---                                      ---
     STORAGE-AQUEOUS =       1.0903E-11       STORAGE-AQUEOUS =       5.1268E-18     MST                              
                 WEL =           0.0000                   WEL =           0.0000     SSM_WEL1                         
                 WEL =       1.9000E-02                   WEL =       5.0000E-04     SSM_WEL2                         

            TOTAL IN =       1.9000E-02              TOTAL IN =       5.0000E-04

          OUT:                                     OUT:
          ----                                     ----
     STORAGE-AQUEOUS =       1.8122E-02       STORAGE-AQUEOUS =       4.2049E-04     MST                              
                 WEL =       8.7761E-04                   WEL =       7.9512E-05     SSM_WEL1                         
                 WEL =           0.0000                   WEL =           0.0000     SSM_WEL2                         

           TOTAL OUT =       1.9000E-02             TOTAL OUT =       5.0000E-04

            IN - OUT =       4.7580E-08              IN - OUT =       4.2069E-10

 PERCENT DISCREPANCY =           0.00     PERCENT DISCREPANCY =           0.00




         TIME SUMMARY AT END OF TIME STEP   19 IN STRESS PERIOD    1
                    SECONDS     MINUTES      HOURS       DAYS        YEARS
                    -----------------------------------------------------------
   TIME STEP LENGTH 1.72800E+05  2880.0      48.000      2.0000     5.47570E-03
 STRESS PERIOD TIME 3.28320E+06  54720.      912.00      38.000     0.10404    
         TOTAL TIME 3.28320E+06  54720.      912.00      38.000     0.10404    


end timestep


start timestep kper="1" kstp="20" mode="normal"

 UBDSV1 SAVING     FLOW-JA-FACE ON UNIT   1030 AT TIME STEP     20, STRESS PERIOD      1
 UBDSV1 SAVING  STORAGE-AQUEOUS ON UNIT   1030 AT TIME STEP     20, STRESS PERIOD      1
 UBDSV06 SAVING  SOURCE-SINK MIX IN MODEL SVA_TM_T         PACKAGE SVA_TM_T        CONNECTED TO MODEL SVA_TM_T         PACKAGE SSM              ON UNIT   1030 AT TIME STEP     20, STRESS PERIOD      1

 CONCENTRATION WILL BE SAVED ON UNIT 1031 AT END OF TIME STEP   20, STRESS PERIOD    1


  MASS BUDGET FOR ENTIRE MODEL AT END OF TIME STEP   20, STRESS PERIOD   1
  ---------------------------------------------------------------------------------------------------

     CUMULATIVE MASS      M       RATES FOR THIS TIME STEP      M/T          PACKAGE NAME    
     ------------------                 ------------------------                     ----------------

           IN:                                      IN:
           ---                                      ---
     STORAGE-AQUEOUS =       1.0903E-11       STORAGE-AQUEOUS =       2.8868E-18     MST                              
                 WEL =           0.0000                   WEL =           0.0000     SSM_WEL1                         
                 WEL =       2.0000E-02                   WEL =       5.0000E-04     SSM_WEL2                         

            TOTAL IN =       2.0000E-02              TOTAL IN =       5.0000E-04

          OUT:                                     OUT:
          ----                                     ----
     STORAGE-AQUEOUS =       1.8946E-02       STORAGE-AQUEOUS =       4.1179E-04     MST                              
                 WEL =       1.0540E-03                   WEL =       8.8205E-05     SSM_WEL1                         
                 WEL =           0.0000                   WEL =           0.0000     SSM_WEL2                         

           TOTAL OUT =       2.0000E-02             TOTAL OUT =       5.0000E-04

            IN - OUT =       4.8461E-08              IN - OUT =       4.4036E-10

 PERCENT DISCREPANCY =           0.00     PERCENT DISCREPANCY =           0.00




         TIME SUMMARY AT END OF TIME STEP   20 IN STRESS PERIOD    1
                    SECONDS     MINUTES      HOURS       DAYS        YEARS
                    -----------------------------------------------------------
   TIME STEP LENGTH 1.72800E+05  2880.0      48.000      2.0000     5.47570E-03
 STRESS PERIOD TIME 3.45600E+06  57600.      960.00      40.000     0.10951    
         TOTAL TIME 3.45600E+06  57600.      960.00      40.000     0.10951    


end timestep


start timestep kper="1" kstp="21" mode="normal"

 UBDSV1 SAVING     FLOW-JA-FACE ON UNIT   1030 AT TIME STEP     21, STRESS PERIOD      1
 UBDSV1 SAVING  STORAGE-AQUEOUS ON UNIT   1030 AT TIME STEP     21, STRESS PERIOD      1
 UBDSV06 SAVING  SOURCE-SINK MIX IN MODEL SVA_TM_T         PACKAGE SVA_TM_T        CONNECTED TO MODEL SVA_TM_T         PACKAGE SSM              ON UNIT   1030 AT TIME STEP     21, STRESS PERIOD      1

 CONCENTRATION WILL BE SAVED ON UNIT 1031 AT END OF TIME STEP   21, STRESS PERIOD    1


  MASS BUDGET FOR ENTIRE MODEL AT END OF TIME STEP   21, STRESS PERIOD   1
  ---------------------------------------------------------------------------------------------------

     CUMULATIVE MASS      M       RATES FOR THIS TIME STEP      M/T          PACKAGE NAME    
     ------------------                 ------------------------                     ----------------

           IN:                                      IN:
           ---                                      ---
     STORAGE-AQUEOUS =       1.0903E-11       STORAGE-AQUEOUS =       1.7690E-18     MST                              
                 WEL =           0.0000                   WEL =           0.0000     SSM_WEL1                         
                 WEL =       2.1000E-02                   WEL =       5.0000E-04     SSM_WEL2                         

            TOTAL IN =       2.1000E-02              TOTAL IN =       5.0000E-04

          OUT:                                     OUT:
          ----                                     ----
     STORAGE-AQUEOUS =       1.9752E-02       STORAGE-AQUEOUS =       4.0322E-04     MST                              
                 WEL =       1.2476E-03                   WEL =       9.6784E-05     SSM_WEL1                         
                 WEL =           0.0000                   WEL =           0.0000     SSM_WEL2                         

           TOTAL OUT =       2.1000E-02             TOTAL OUT =       5.0000E-04

            IN - OUT =       4.9468E-08              IN - OUT =       5.0356E-10

 PERCENT DISCREPANCY =           0.00     PERCENT DISCREPANCY =           0.00




         TIME SUMMARY AT END OF TIME STEP   21 IN STRESS PERIOD    1
                    SECONDS     MINUTES      HOURS       DAYS        YEARS
                    -----------------------------------------------------------
   TIME STEP LENGTH 1.72800E+05  2880.0      48.000      2.0000     5.47570E-03
 STRESS PERIOD TIME 3.62880E+06  60480.      1008.0      42.000     0.11499    
         TOTAL TIME 3.62880E+06  60480.      1008.0      42.000     0.11499    


end timestep


start timestep kper="1" kstp="22" mode="normal"

 UBDSV1 SAVING     FLOW-JA-FACE ON UNIT   1030 AT TIME STEP     22, STRESS PERIOD      1
 UBDSV1 SAVING  STORAGE-AQUEOUS ON UNIT   1030 AT TIME STEP     22, STRESS PERIOD      1
 UBDSV06 SAVING  SOURCE-SINK MIX IN MODEL SVA_TM_T         PACKAGE SVA_TM_T        CONNECTED TO MODEL SVA_TM_T         PACKAGE SSM              ON UNIT   1030 AT TIME STEP     22, STRESS PERIOD      1

 CONCENTRATION WILL BE SAVED ON UNIT 1031 AT END OF TIME STEP   22, STRESS PERIOD    1


  MASS BUDGET FOR ENTIRE MODEL AT END OF TIME STEP   22, STRESS PERIOD   1
  ---------------------------------------------------------------------------------------------------

     CUMULATIVE MASS      M       RATES FOR THIS TIME STEP      M/T          PACKAGE NAME    
     ------------------                 ------------------------                     ----------------

           IN:                                      IN:
           ---                                      ---
     STORAGE-AQUEOUS =       1.0903E-11       STORAGE-AQUEOUS =       2.4335E-18     MST                              
                 WEL =           0.0000                   WEL =           0.0000     SSM_WEL1                         
                 WEL =       2.2000E-02                   WEL =       5.0000E-04     SSM_WEL2                         

            TOTAL IN =       2.2000E-02              TOTAL IN =       5.0000E-04

          OUT:                                     OUT:
          ----                                     ----
     STORAGE-AQUEOUS =       2.0542E-02       STORAGE-AQUEOUS =       3.9483E-04     MST                              
                 WEL =       1.4579E-03                   WEL =       1.0517E-04     SSM_WEL1                         
                 WEL =           0.0000                   WEL =           0.0000     SSM_WEL2                         

           TOTAL OUT =       2.2000E-02             TOTAL OUT =       5.0000E-04

            IN - OUT =       5.0090E-08              IN - OUT =       3.1099E-10

 PERCENT DISCREPANCY =           0.00     PERCENT DISCREPANCY =           0.00




         TIME SUMMARY AT END OF TIME STEP   22 IN STRESS PERIOD    1
                    SECONDS     MINUTES      HOURS       DAYS        YEARS
                    -----------------------------------------------------------
   TIME STEP LENGTH 1.72800E+05  2880.0      48.000      2.0000     5.47570E-03
 STRESS PERIOD TIME 3.80160E+06  63360.      1056.0      44.000     0.12047    
         TOTAL TIME 3.80160E+06  63360.      1056.0      44.000     0.12047    


end timestep


start timestep kper="1" kstp="23" mode="normal"

 UBDSV1 SAVING     FLOW-JA-FACE ON UNIT   1030 AT TIME STEP     23, STRESS PERIOD      1
 UBDSV1 SAVING  STORAGE-AQUEOUS ON UNIT   1030 AT TIME STEP     23, STRESS PERIOD      1
 UBDSV06 SAVING  SOURCE-SINK MIX IN MODEL SVA_TM_T         PACKAGE SVA_TM_T        CONNECTED TO MODEL SVA_TM_T         PACKAGE SSM              ON UNIT   1030 AT TIME STEP     23, STRESS PERIOD      1

 CONCENTRATION WILL BE SAVED ON UNIT 1031 AT END OF TIME STEP   23, STRESS PERIOD    1


  MASS BUDGET FOR ENTIRE MODEL AT END OF TIME STEP   23, STRESS PERIOD   1
  ---------------------------------------------------------------------------------------------------

     CUMULATIVE MASS      M       RATES FOR THIS TIME STEP      M/T          PACKAGE NAME    
     ------------------                 ------------------------                     ----------------

           IN:                                      IN:
           ---                                      ---
     STORAGE-AQUEOUS =       1.0903E-11       STORAGE-AQUEOUS =       2.5006E-18     MST                              
                 WEL =           0.0000                   WEL =           0.0000     SSM_WEL1                         
                 WEL =       2.3000E-02                   WEL =       5.0000E-04     SSM_WEL2                         

            TOTAL IN =       2.3000E-02              TOTAL IN =       5.0000E-04

          OUT:                                     OUT:
          ----                                     ----
     STORAGE-AQUEOUS =       2.1315E-02       STORAGE-AQUEOUS =       3.8665E-04     MST                              
                 WEL =       1.6846E-03                   WEL =       1.1335E-04     SSM_WEL1                         
                 WEL =           0.0000                   WEL =           0.0000     SSM_WEL2                         

           TOTAL OUT =       2.3000E-02             TOTAL OUT =       5.0000E-04

            IN - OUT =       5.0755E-08              IN - OUT =       3.3241E-10

 PERCENT DISCREPANCY =           0.00     PERCENT DISCREPANCY =           0.00




         TIME SUMMARY AT END OF TIME STEP   23 IN STRESS PERIOD    1
                    SECONDS     MINUTES      HOURS       DAYS        YEARS
                    -----------------------------------------------------------
   TIME STEP LENGTH 1.72800E+05  2880.0      48.000      2.0000     5.47570E-03
 STRESS PERIOD TIME 3.97440E+06  66240.      1104.0      46.000     0.12594    
         TOTAL TIME 3.97440E+06  66240.      1104.0      46.000     0.12594    


end timestep


start timestep kper="1" kstp="24" mode="normal"

 UBDSV1 SAVING     FLOW-JA-FACE ON UNIT   1030 AT TIME STEP     24, STRESS PERIOD      1
 UBDSV1 SAVING  STORAGE-AQUEOUS ON UNIT   1030 AT TIME STEP     24, STRESS PERIOD      1
 UBDSV06 SAVING  SOURCE-SINK MIX IN MODEL SVA_TM_T         PACKAGE SVA_TM_T        CONNECTED TO MODEL SVA_TM_T         PACKAGE SSM              ON UNIT   1030 AT TIME STEP     24, STRESS PERIOD      1

 CONCENTRATION WILL BE SAVED ON UNIT 1031 AT END OF TIME STEP   24, STRESS PERIOD    1


  MASS BUDGET FOR ENTIRE MODEL AT END OF TIME STEP   24, STRESS PERIOD   1
  ---------------------------------------------------------------------------------------------------

     CUMULATIVE MASS      M       RATES FOR THIS TIME STEP      M/T          PACKAGE NAME    
     ------------------                 ------------------------                     ----------------

           IN:                                      IN:
           ---                                      ---
     STORAGE-AQUEOUS =       1.0903E-11       STORAGE-AQUEOUS =       1.8757E-18     MST                              
                 WEL =           0.0000                   WEL =           0.0000     SSM_WEL1                         
                 WEL =       2.4000E-02                   WEL =       5.0000E-04     SSM_WEL2                         

            TOTAL IN =       2.4000E-02              TOTAL IN =       5.0000E-04

          OUT:                                     OUT:
          ----                                     ----
     STORAGE-AQUEOUS =       2.2073E-02       STORAGE-AQUEOUS =       3.7868E-04     MST                              
                 WEL =       1.9273E-03                   WEL =       1.2132E-04     SSM_WEL1                         
                 WEL =           0.0000                   WEL =           0.0000     SSM_WEL2                         

           TOTAL OUT =       2.4000E-02             TOTAL OUT =       5.0000E-04

            IN - OUT =       5.1254E-08              IN - OUT =       2.4951E-10

 PERCENT DISCREPANCY =           0.00     PERCENT DISCREPANCY =           0.00




         TIME SUMMARY AT END OF TIME STEP   24 IN STRESS PERIOD    1
                    SECONDS     MINUTES      HOURS       DAYS        YEARS
                    -----------------------------------------------------------
   TIME STEP LENGTH 1.72800E+05  2880.0      48.000      2.0000     5.47570E-03
 STRESS PERIOD TIME 4.14720E+06  69120.      1152.0      48.000     0.13142    
         TOTAL TIME 4.14720E+06  69120.      1152.0      48.000     0.13142    


end timestep


start timestep kper="1" kstp="25" mode="normal"

 UBDSV1 SAVING     FLOW-JA-FACE ON UNIT   1030 AT TIME STEP     25, STRESS PERIOD      1
 UBDSV1 SAVING  STORAGE-AQUEOUS ON UNIT   1030 AT TIME STEP     25, STRESS PERIOD      1
 UBDSV06 SAVING  SOURCE-SINK MIX IN MODEL SVA_TM_T         PACKAGE SVA_TM_T        CONNECTED TO MODEL SVA_TM_T         PACKAGE SSM              ON UNIT   1030 AT TIME STEP     25, STRESS PERIOD      1

 CONCENTRATION WILL BE SAVED ON UNIT 1031 AT END OF TIME STEP   25, STRESS PERIOD    1


  MASS BUDGET FOR ENTIRE MODEL AT END OF TIME STEP   25, STRESS PERIOD   1
  ---------------------------------------------------------------------------------------------------

     CUMULATIVE MASS      M       RATES FOR THIS TIME STEP      M/T          PACKAGE NAME    
     ------------------                 ------------------------                     ----------------

           IN:                                      IN:
           ---                                      ---
     STORAGE-AQUEOUS =       1.0903E-11       STORAGE-AQUEOUS =       9.1442E-19     MST                              
                 WEL =           0.0000                   WEL =           0.0000     SSM_WEL1                         
                 WEL =       2.5000E-02                   WEL =       5.0000E-04     SSM_WEL2                         

            TOTAL IN =       2.5000E-02              TOTAL IN =       5.0000E-04

          OUT:                                     OUT:
          ----                                     ----
     STORAGE-AQUEOUS =       2.2815E-02       STORAGE-AQUEOUS =       3.7091E-04     MST                              
                 WEL =       2.1854E-03                   WEL =       1.2909E-04     SSM_WEL1                         
                 WEL =           0.0000                   WEL =           0.0000     SSM_WEL2                         

           TOTAL OUT =       2.5000E-02             TOTAL OUT =       5.0000E-04

            IN - OUT =       5.2059E-08              IN - OUT =       4.0247E-10

 PERCENT DISCREPANCY =           0.00     PERCENT DISCREPANCY =           0.00




         TIME SUMMARY AT END OF TIME STEP   25 IN STRESS PERIOD    1
                    SECONDS     MINUTES      HOURS       DAYS        YEARS
                    -----------------------------------------------------------
   TIME STEP LENGTH 1.72800E+05  2880.0      48.000      2.0000     5.47570E-03
 STRESS PERIOD TIME 4.32000E+06  72000.      1200.0      50.000     0.13689    
         TOTAL TIME 4.32000E+06  72000.      1200.0      50.000     0.13689    


end timestep


start timestep kper="1" kstp="26" mode="normal"

 UBDSV1 SAVING     FLOW-JA-FACE ON UNIT   1030 AT TIME STEP     26, STRESS PERIOD      1
 UBDSV1 SAVING  STORAGE-AQUEOUS ON UNIT   1030 AT TIME STEP     26, STRESS PERIOD      1
 UBDSV06 SAVING  SOURCE-SINK MIX IN MODEL SVA_TM_T         PACKAGE SVA_TM_T        CONNECTED TO MODEL SVA_TM_T         PACKAGE SSM              ON UNIT   1030 AT TIME STEP     26, STRESS PERIOD      1

 CONCENTRATION WILL BE SAVED ON UNIT 1031 AT END OF TIME STEP   26, STRESS PERIOD    1


  MASS BUDGET FOR ENTIRE MODEL AT END OF TIME STEP   26, STRESS PERIOD   1
  ---------------------------------------------------------------------------------------------------

     CUMULATIVE MASS      M       RATES FOR THIS TIME STEP      M/T          PACKAGE NAME    
     ------------------                 ------------------------                     ----------------

           IN:                                      IN:
           ---                                      ---
     STORAGE-AQUEOUS =       1.0903E-11       STORAGE-AQUEOUS =       7.9114E-19     MST                              
                 WEL =           0.0000                   WEL =           0.0000     SSM_WEL1                         
                 WEL =       2.6000E-02                   WEL =       5.0000E-04     SSM_WEL2                         

            TOTAL IN =       2.6000E-02              TOTAL IN =       5.0000E-04

          OUT:                                     OUT:
          ----                                     ----
     STORAGE-AQUEOUS =       2.3541E-02       STORAGE-AQUEOUS =       3.6337E-04     MST                              
                 WEL =       2.4587E-03                   WEL =       1.3663E-04     SSM_WEL1                         
                 WEL =           0.0000                   WEL =           0.0000     SSM_WEL2                         

           TOTAL OUT =       2.6000E-02             TOTAL OUT =       5.0000E-04

            IN - OUT =       5.2505E-08              IN - OUT =       2.2327E-10

 PERCENT DISCREPANCY =           0.00     PERCENT DISCREPANCY =           0.00




         TIME SUMMARY AT END OF TIME STEP   26 IN STRESS PERIOD    1
                    SECONDS     MINUTES      HOURS       DAYS        YEARS
                    -----------------------------------------------------------
   TIME STEP LENGTH 1.72800E+05  2880.0      48.000      2.0000     5.47570E-03
 STRESS PERIOD TIME 4.49280E+06  74880.      1248.0      52.000     0.14237    
         TOTAL TIME 4.49280E+06  74880.      1248.0      52.000     0.14237    


end timestep


start timestep kper="1" kstp="27" mode="normal"

 UBDSV1 SAVING     FLOW-JA-FACE ON UNIT   1030 AT TIME STEP     27, STRESS PERIOD      1
 UBDSV1 SAVING  STORAGE-AQUEOUS ON UNIT   1030 AT TIME STEP     27, STRESS PERIOD      1
 UBDSV06 SAVING  SOURCE-SINK MIX IN MODEL SVA_TM_T         PACKAGE SVA_TM_T        CONNECTED TO MODEL SVA_TM_T         PACKAGE SSM              ON UNIT   1030 AT TIME STEP     27, STRESS PERIOD      1

 CONCENTRATION WILL BE SAVED ON UNIT 1031 AT END OF TIME STEP   27, STRESS PERIOD    1


  MASS BUDGET FOR ENTIRE MODEL AT END OF TIME STEP   27, STRESS PERIOD   1
  ---------------------------------------------------------------------------------------------------

     CUMULATIVE MASS      M       RATES FOR THIS TIME STEP      M/T          PACKAGE NAME    
     ------------------                 ------------------------                     ----------------

           IN:                                      IN:
           ---                                      ---
     STORAGE-AQUEOUS =       1.0903E-11       STORAGE-AQUEOUS =       4.8190E-19     MST                              
                 WEL =           0.0000                   WEL =           0.0000     SSM_WEL1                         
                 WEL =       2.7000E-02                   WEL =       5.0000E-04     SSM_WEL2                         

            TOTAL IN =       2.7000E-02              TOTAL IN =       5.0000E-04

          OUT:                                     OUT:
          ----                                     ----
     STORAGE-AQUEOUS =       2.4253E-02       STORAGE-AQUEOUS =       3.5605E-04     MST                              
                 WEL =       2.7466E-03                   WEL =       1.4395E-04     SSM_WEL1                         
                 WEL =           0.0000                   WEL =           0.0000     SSM_WEL2                         

           TOTAL OUT =       2.7000E-02             TOTAL OUT =       5.0000E-04

            IN - OUT =       4.9931E-08              IN - OUT =      -1.2872E-09

 PERCENT DISCREPANCY =           0.00     PERCENT DISCREPANCY =          -0.00




         TIME SUMMARY AT END OF TIME STEP   27 IN STRESS PERIOD    1
                    SECONDS     MINUTES      HOURS       DAYS        YEARS
                    -----------------------------------------------------------
   TIME STEP LENGTH 1.72800E+05  2880.0      48.000      2.0000     5.47570E-03
 STRESS PERIOD TIME 4.66560E+06  77760.      1296.0      54.000     0.14784    
         TOTAL TIME 4.66560E+06  77760.      1296.0      54.000     0.14784    


end timestep


start timestep kper="1" kstp="28" mode="normal"

 UBDSV1 SAVING     FLOW-JA-FACE ON UNIT   1030 AT TIME STEP     28, STRESS PERIOD      1
 UBDSV1 SAVING  STORAGE-AQUEOUS ON UNIT   1030 AT TIME STEP     28, STRESS PERIOD      1
 UBDSV06 SAVING  SOURCE-SINK MIX IN MODEL SVA_TM_T         PACKAGE SVA_TM_T        CONNECTED TO MODEL SVA_TM_T         PACKAGE SSM              ON UNIT   1030 AT TIME STEP     28, STRESS PERIOD      1

 CONCENTRATION WILL BE SAVED ON UNIT 1031 AT END OF TIME STEP   28, STRESS PERIOD    1


  MASS BUDGET FOR ENTIRE MODEL AT END OF TIME STEP   28, STRESS PERIOD   1
  ---------------------------------------------------------------------------------------------------

     CUMULATIVE MASS      M       RATES FOR THIS TIME STEP      M/T          PACKAGE NAME    
     ------------------                 ------------------------                     ----------------

           IN:                                      IN:
           ---                                      ---
     STORAGE-AQUEOUS =       1.0903E-11       STORAGE-AQUEOUS =       2.3818E-19     MST                              
                 WEL =           0.0000                   WEL =           0.0000     SSM_WEL1                         
                 WEL =       2.8000E-02                   WEL =       5.0000E-04     SSM_WEL2                         

            TOTAL IN =       2.8000E-02              TOTAL IN =       5.0000E-04

          OUT:                                     OUT:
          ----                                     ----
     STORAGE-AQUEOUS =       2.4951E-02       STORAGE-AQUEOUS =       3.4896E-04     MST                              
                 WEL =       3.0487E-03                   WEL =       1.5105E-04     SSM_WEL1                         
                 WEL =           0.0000                   WEL =           0.0000     SSM_WEL2                         

           TOTAL OUT =       2.8000E-02             TOTAL OUT =       5.0000E-04

            IN - OUT =       4.4656E-08              IN - OUT =      -2.6371E-09

 PERCENT DISCREPANCY =           0.00     PERCENT DISCREPANCY =          -0.00




         TIME SUMMARY AT END OF TIME STEP   28 IN STRESS PERIOD    1
                    SECONDS     MINUTES      HOURS       DAYS        YEARS
                    -----------------------------------------------------------
   TIME STEP LENGTH 1.72800E+05  2880.0      48.000      2.0000     5.47570E-03
 STRESS PERIOD TIME 4.83840E+06  80640.      1344.0      56.000     0.15332    
         TOTAL TIME 4.83840E+06  80640.      1344.0      56.000     0.15332    


end timestep


start timestep kper="1" kstp="29" mode="normal"

 UBDSV1 SAVING     FLOW-JA-FACE ON UNIT   1030 AT TIME STEP     29, STRESS PERIOD      1
 UBDSV1 SAVING  STORAGE-AQUEOUS ON UNIT   1030 AT TIME STEP     29, STRESS PERIOD      1
 UBDSV06 SAVING  SOURCE-SINK MIX IN MODEL SVA_TM_T         PACKAGE SVA_TM_T        CONNECTED TO MODEL SVA_TM_T         PACKAGE SSM              ON UNIT   1030 AT TIME STEP     29, STRESS PERIOD      1

 CONCENTRATION WILL BE SAVED ON UNIT 1031 AT END OF TIME STEP   29, STRESS PERIOD    1


  MASS BUDGET FOR ENTIRE MODEL AT END OF TIME STEP   29, STRESS PERIOD   1
  ---------------------------------------------------------------------------------------------------

     CUMULATIVE MASS      M       RATES FOR THIS TIME STEP      M/T          PACKAGE NAME    
     ------------------                 ------------------------                     ----------------

           IN:                                      IN:
           ---                                      ---
     STORAGE-AQUEOUS =       1.0903E-11       STORAGE-AQUEOUS =       7.8306E-20     MST                              
                 WEL =           0.0000                   WEL =           0.0000     SSM_WEL1                         
                 WEL =       2.9000E-02                   WEL =       5.0000E-04     SSM_WEL2                         

            TOTAL IN =       2.9000E-02              TOTAL IN =       5.0000E-04

          OUT:                                     OUT:
          ----                                     ----
     STORAGE-AQUEOUS =       2.5635E-02       STORAGE-AQUEOUS =       3.4210E-04     MST                              
                 WEL =       3.3645E-03                   WEL =       1.5791E-04     SSM_WEL1                         
                 WEL =           0.0000                   WEL =           0.0000     SSM_WEL2                         

           TOTAL OUT =       2.9000E-02             TOTAL OUT =       5.0001E-04

            IN - OUT =       3.0372E-08              IN - OUT =      -7.1424E-09

 PERCENT DISCREPANCY =           0.00     PERCENT DISCREPANCY =          -0.00




         TIME SUMMARY AT END OF TIME STEP   29 IN STRESS PERIOD    1
                    SECONDS     MINUTES      HOURS       DAYS        YEARS
                    -----------------------------------------------------------
   TIME STEP LENGTH 1.72800E+05  2880.0      48.000      2.0000     5.47570E-03
 STRESS PERIOD TIME 5.01120E+06  83520.      1392.0      58.000     0.15880    
         TOTAL TIME 5.01120E+06  83520.      1392.0      58.000     0.15880    


end timestep


start timestep kper="1" kstp="30" mode="normal"

 UBDSV1 SAVING     FLOW-JA-FACE ON UNIT   1030 AT TIME STEP     30, STRESS PERIOD      1
 UBDSV1 SAVING  STORAGE-AQUEOUS ON UNIT   1030 AT TIME STEP     30, STRESS PERIOD      1
 UBDSV06 SAVING  SOURCE-SINK MIX IN MODEL SVA_TM_T         PACKAGE SVA_TM_T        CONNECTED TO MODEL SVA_TM_T         PACKAGE SSM              ON UNIT   1030 AT TIME STEP     30, STRESS PERIOD      1

 CONCENTRATION WILL BE SAVED ON UNIT 1031 AT END OF TIME STEP   30, STRESS PERIOD    1


  MASS BUDGET FOR ENTIRE MODEL AT END OF TIME STEP   30, STRESS PERIOD   1
  ---------------------------------------------------------------------------------------------------

     CUMULATIVE MASS      M       RATES FOR THIS TIME STEP      M/T          PACKAGE NAME    
     ------------------                 ------------------------                     ----------------

           IN:                                      IN:
           ---                                      ---
     STORAGE-AQUEOUS =       1.0903E-11       STORAGE-AQUEOUS =       5.9246E-20     MST                              
                 WEL =           0.0000                   WEL =           0.0000     SSM_WEL1                         
                 WEL =       3.0000E-02                   WEL =       5.0000E-04     SSM_WEL2                         

            TOTAL IN =       3.0000E-02              TOTAL IN =       5.0000E-04

          OUT:                                     OUT:
          ----                                     ----
     STORAGE-AQUEOUS =       2.6306E-02       STORAGE-AQUEOUS =       3.3547E-04     MST                              
                 WEL =       3.6936E-03                   WEL =       1.6453E-04     SSM_WEL1                         
                 WEL =           0.0000                   WEL =           0.0000     SSM_WEL2                         

           TOTAL OUT =       3.0000E-02             TOTAL OUT =       5.0001E-04

            IN - OUT =       1.7012E-08              IN - OUT =      -6.6796E-09

 PERCENT DISCREPANCY =           0.00     PERCENT DISCREPANCY =          -0.00




         TIME SUMMARY AT END OF TIME STEP   30 IN STRESS PERIOD    1
                    SECONDS     MINUTES      HOURS       DAYS        YEARS
                    -----------------------------------------------------------
   TIME STEP LENGTH 1.72800E+05  2880.0      48.000      2.0000     5.47570E-03
 STRESS PERIOD TIME 5.18400E+06  86400.      1440.0      60.000     0.16427    
         TOTAL TIME 5.18400E+06  86400.      1440.0      60.000     0.16427    


end timestep


start timestep kper="1" kstp="31" mode="normal"

 UBDSV1 SAVING     FLOW-JA-FACE ON UNIT   1030 AT TIME STEP     31, STRESS PERIOD      1
 UBDSV1 SAVING  STORAGE-AQUEOUS ON UNIT   1030 AT TIME STEP     31, STRESS PERIOD      1
 UBDSV06 SAVING  SOURCE-SINK MIX IN MODEL SVA_TM_T         PACKAGE SVA_TM_T        CONNECTED TO MODEL SVA_TM_T         PACKAGE SSM              ON UNIT   1030 AT TIME STEP     31, STRESS PERIOD      1

 CONCENTRATION WILL BE SAVED ON UNIT 1031 AT END OF TIME STEP   31, STRESS PERIOD    1


  MASS BUDGET FOR ENTIRE MODEL AT END OF TIME STEP   31, STRESS PERIOD   1
  ---------------------------------------------------------------------------------------------------

     CUMULATIVE MASS      M       RATES FOR THIS TIME STEP      M/T          PACKAGE NAME    
     ------------------                 ------------------------                     ----------------

           IN:                                      IN:
           ---                                      ---
     STORAGE-AQUEOUS =       1.0903E-11       STORAGE-AQUEOUS =       3.9441E-20     MST                              
                 WEL =           0.0000                   WEL =           0.0000     SSM_WEL1                         
                 WEL =       3.1000E-02                   WEL =       5.0000E-04     SSM_WEL2                         

            TOTAL IN =       3.1000E-02              TOTAL IN =       5.0000E-04

          OUT:                                     OUT:
          ----                                     ----
     STORAGE-AQUEOUS =       2.6965E-02       STORAGE-AQUEOUS =       3.2909E-04     MST                              
                 WEL =       4.0354E-03                   WEL =       1.7092E-04     SSM_WEL1                         
                 WEL =           0.0000                   WEL =           0.0000     SSM_WEL2                         

           TOTAL OUT =       3.1000E-02             TOTAL OUT =       5.0001E-04

            IN - OUT =       3.9472E-09              IN - OUT =      -6.5326E-09

 PERCENT DISCREPANCY =           0.00     PERCENT DISCREPANCY =          -0.00




         TIME SUMMARY AT END OF TIME STEP   31 IN STRESS PERIOD    1
                    SECONDS     MINUTES      HOURS       DAYS        YEARS
                    -----------------------------------------------------------
   TIME STEP LENGTH 1.72800E+05  2880.0      48.000      2.0000     5.47570E-03
 STRESS PERIOD TIME 5.35680E+06  89280.      1488.0      62.000     0.16975    
         TOTAL TIME 5.35680E+06  89280.      1488.0      62.000     0.16975    


end timestep


start timestep kper="1" kstp="32" mode="normal"

 UBDSV1 SAVING     FLOW-JA-FACE ON UNIT   1030 AT TIME STEP     32, STRESS PERIOD      1
 UBDSV1 SAVING  STORAGE-AQUEOUS ON UNIT   1030 AT TIME STEP     32, STRESS PERIOD      1
 UBDSV06 SAVING  SOURCE-SINK MIX IN MODEL SVA_TM_T         PACKAGE SVA_TM_T        CONNECTED TO MODEL SVA_TM_T         PACKAGE SSM              ON UNIT   1030 AT TIME STEP     32, STRESS PERIOD      1

 CONCENTRATION WILL BE SAVED ON UNIT 1031 AT END OF TIME STEP   32, STRESS PERIOD    1


  MASS BUDGET FOR ENTIRE MODEL AT END OF TIME STEP   32, STRESS PERIOD   1
  ---------------------------------------------------------------------------------------------------

     CUMULATIVE MASS      M       RATES FOR THIS TIME STEP      M/T          PACKAGE NAME    
     ------------------                 ------------------------                     ----------------

           IN:                                      IN:
           ---                                      ---
     STORAGE-AQUEOUS =       1.0903E-11       STORAGE-AQUEOUS =       2.4957E-20     MST                              
                 WEL =           0.0000                   WEL =           0.0000     SSM_WEL1                         
                 WEL =       3.2000E-02                   WEL =       5.0000E-04     SSM_WEL2                         

            TOTAL IN =       3.2000E-02              TOTAL IN =       5.0000E-04

          OUT:                                     OUT:
          ----                                     ----
     STORAGE-AQUEOUS =       2.7610E-02       STORAGE-AQUEOUS =       3.2293E-04     MST                              
                 WEL =       4.3896E-03                   WEL =       1.7708E-04     SSM_WEL1                         
                 WEL =           0.0000                   WEL =           0.0000     SSM_WEL2                         

           TOTAL OUT =       3.2000E-02             TOTAL OUT =       5.0001E-04

            IN - OUT =      -8.1264E-09              IN - OUT =      -6.0368E-09

 PERCENT DISCREPANCY =          -0.00     PERCENT DISCREPANCY =          -0.00




         TIME SUMMARY AT END OF TIME STEP   32 IN STRESS PERIOD    1
                    SECONDS     MINUTES      HOURS       DAYS        YEARS
                    -----------------------------------------------------------
   TIME STEP LENGTH 1.72800E+05  2880.0      48.000      2.0000     5.47570E-03
 STRESS PERIOD TIME 5.52960E+06  92160.      1536.0      64.000     0.17522    
         TOTAL TIME 5.52960E+06  92160.      1536.0      64.000     0.17522    


end timestep


start timestep kper="1" kstp="33" mode="normal"

 UBDSV1 SAVING     FLOW-JA-FACE ON UNIT   1030 AT TIME STEP     33, STRESS PERIOD      1
 UBDSV1 SAVING  STORAGE-AQUEOUS ON UNIT   1030 AT TIME STEP     33, STRESS PERIOD      1
 UBDSV06 SAVING  SOURCE-SINK MIX IN MODEL SVA_TM_T         PACKAGE SVA_TM_T        CONNECTED TO MODEL SVA_TM_T         PACKAGE SSM              ON UNIT   1030 AT TIME STEP     33, STRESS PERIOD      1

 CONCENTRATION WILL BE SAVED ON UNIT 1031 AT END OF TIME STEP   33, STRESS PERIOD    1


  MASS BUDGET FOR ENTIRE MODEL AT END OF TIME STEP   33, STRESS PERIOD   1
  ---------------------------------------------------------------------------------------------------

     CUMULATIVE MASS      M       RATES FOR THIS TIME STEP      M/T          PACKAGE NAME    
     ------------------                 ------------------------                     ----------------

           IN:                                      IN:
           ---                                      ---
     STORAGE-AQUEOUS =       1.0903E-11       STORAGE-AQUEOUS =       1.8184E-20     MST                              
                 WEL =           0.0000                   WEL =           0.0000     SSM_WEL1                         
                 WEL =       3.3000E-02                   WEL =       5.0000E-04     SSM_WEL2                         

            TOTAL IN =       3.3000E-02              TOTAL IN =       5.0000E-04

          OUT:                                     OUT:
          ----                                     ----
     STORAGE-AQUEOUS =       2.8244E-02       STORAGE-AQUEOUS =       3.1700E-04     MST                              
                 WEL =       4.7556E-03                   WEL =       1.8301E-04     SSM_WEL1                         
                 WEL =           0.0000                   WEL =           0.0000     SSM_WEL2                         

           TOTAL OUT =       3.3000E-02             TOTAL OUT =       5.0001E-04

            IN - OUT =      -1.9745E-08              IN - OUT =      -5.8094E-09

 PERCENT DISCREPANCY =          -0.00     PERCENT DISCREPANCY =          -0.00




         TIME SUMMARY AT END OF TIME STEP   33 IN STRESS PERIOD    1
                    SECONDS     MINUTES      HOURS       DAYS        YEARS
                    -----------------------------------------------------------
   TIME STEP LENGTH 1.72800E+05  2880.0      48.000      2.0000     5.47570E-03
 STRESS PERIOD TIME 5.70240E+06  95040.      1584.0      66.000     0.18070    
         TOTAL TIME 5.70240E+06  95040.      1584.0      66.000     0.18070    


end timestep


start timestep kper="1" kstp="34" mode="normal"

 UBDSV1 SAVING     FLOW-JA-FACE ON UNIT   1030 AT TIME STEP     34, STRESS PERIOD      1
 UBDSV1 SAVING  STORAGE-AQUEOUS ON UNIT   1030 AT TIME STEP     34, STRESS PERIOD      1
 UBDSV06 SAVING  SOURCE-SINK MIX IN MODEL SVA_TM_T         PACKAGE SVA_TM_T        CONNECTED TO MODEL SVA_TM_T         PACKAGE SSM              ON UNIT   1030 AT TIME STEP     34, STRESS PERIOD      1

 CONCENTRATION WILL BE SAVED ON UNIT 1031 AT END OF TIME STEP   34, STRESS PERIOD    1


  MASS BUDGET FOR ENTIRE MODEL AT END OF TIME STEP   34, STRESS PERIOD   1
  ---------------------------------------------------------------------------------------------------

     CUMULATIVE MASS      M       RATES FOR THIS TIME STEP      M/T          PACKAGE NAME    
     ------------------                 ------------------------                     ----------------

           IN:                                      IN:
           ---                                      ---
     STORAGE-AQUEOUS =       1.0903E-11       STORAGE-AQUEOUS =       1.4357E-20     MST                              
                 WEL =           0.0000                   WEL =           0.0000     SSM_WEL1                         
                 WEL =       3.4000E-02                   WEL =       5.0000E-04     SSM_WEL2                         

            TOTAL IN =       3.4000E-02              TOTAL IN =       5.0000E-04

          OUT:                                     OUT:
          ----                                     ----
     STORAGE-AQUEOUS =       2.8867E-02       STORAGE-AQUEOUS =       3.1129E-04     MST                              
                 WEL =       5.1330E-03                   WEL =       1.8872E-04     SSM_WEL1                         
                 WEL =           0.0000                   WEL =           0.0000     SSM_WEL2                         

           TOTAL OUT =       3.4000E-02             TOTAL OUT =       5.0001E-04

            IN - OUT =      -3.1357E-08              IN - OUT =      -5.8059E-09

 PERCENT DISCREPANCY =          -0.00     PERCENT DISCREPANCY =          -0.00




         TIME SUMMARY AT END OF TIME STEP   34 IN STRESS PERIOD    1
                    SECONDS     MINUTES      HOURS       DAYS        YEARS
                    -----------------------------------------------------------
   TIME STEP LENGTH 1.72800E+05  2880.0      48.000      2.0000     5.47570E-03
 STRESS PERIOD TIME 5.87520E+06  97920.      1632.0      68.000     0.18617    
         TOTAL TIME 5.87520E+06  97920.      1632.0      68.000     0.18617    


end timestep


start timestep kper="1" kstp="35" mode="normal"

 UBDSV1 SAVING     FLOW-JA-FACE ON UNIT   1030 AT TIME STEP     35, STRESS PERIOD      1
 UBDSV1 SAVING  STORAGE-AQUEOUS ON UNIT   1030 AT TIME STEP     35, STRESS PERIOD      1
 UBDSV06 SAVING  SOURCE-SINK MIX IN MODEL SVA_TM_T         PACKAGE SVA_TM_T        CONNECTED TO MODEL SVA_TM_T         PACKAGE SSM              ON UNIT   1030 AT TIME STEP     35, STRESS PERIOD      1

 CONCENTRATION WILL BE SAVED ON UNIT 1031 AT END OF TIME STEP   35, STRESS PERIOD    1


  MASS BUDGET FOR ENTIRE MODEL AT END OF TIME STEP   35, STRESS PERIOD   1
  ---------------------------------------------------------------------------------------------------

     CUMULATIVE MASS      M       RATES FOR THIS TIME STEP      M/T          PACKAGE NAME    
     ------------------                 ------------------------                     ----------------

           IN:                                      IN:
           ---                                      ---
     STORAGE-AQUEOUS =       1.0903E-11       STORAGE-AQUEOUS =       1.5886E-20     MST                              
                 WEL =           0.0000                   WEL =           0.0000     SSM_WEL1                         
                 WEL =       3.5000E-02                   WEL =       5.0000E-04     SSM_WEL2                         

            TOTAL IN =       3.5000E-02              TOTAL IN =       5.0000E-04

          OUT:                                     OUT:
          ----                                     ----
     STORAGE-AQUEOUS =       2.9479E-02       STORAGE-AQUEOUS =       3.0584E-04     MST                              
                 WEL =       5.5214E-03                   WEL =       1.9416E-04     SSM_WEL1                         
                 WEL =           0.0000                   WEL =           0.0000     SSM_WEL2                         

           TOTAL OUT =       3.5000E-02             TOTAL OUT =       5.0000E-04

            IN - OUT =      -3.1531E-08              IN - OUT =      -8.6923E-11

 PERCENT DISCREPANCY =          -0.00     PERCENT DISCREPANCY =          -0.00




         TIME SUMMARY AT END OF TIME STEP   35 IN STRESS PERIOD    1
                    SECONDS     MINUTES      HOURS       DAYS        YEARS
                    -----------------------------------------------------------
   TIME STEP LENGTH 1.72800E+05  2880.0      48.000      2.0000     5.47570E-03
 STRESS PERIOD TIME 6.04800E+06 1.00800E+05  1680.0      70.000     0.19165    
         TOTAL TIME 6.04800E+06 1.00800E+05  1680.0      70.000     0.19165    


end timestep


start timestep kper="1" kstp="36" mode="normal"

 UBDSV1 SAVING     FLOW-JA-FACE ON UNIT   1030 AT TIME STEP     36, STRESS PERIOD      1
 UBDSV1 SAVING  STORAGE-AQUEOUS ON UNIT   1030 AT TIME STEP     36, STRESS PERIOD      1
 UBDSV06 SAVING  SOURCE-SINK MIX IN MODEL SVA_TM_T         PACKAGE SVA_TM_T        CONNECTED TO MODEL SVA_TM_T         PACKAGE SSM              ON UNIT   1030 AT TIME STEP     36, STRESS PERIOD      1

 CONCENTRATION WILL BE SAVED ON UNIT 1031 AT END OF TIME STEP   36, STRESS PERIOD    1


  MASS BUDGET FOR ENTIRE MODEL AT END OF TIME STEP   36, STRESS PERIOD   1
  ---------------------------------------------------------------------------------------------------

     CUMULATIVE MASS      M       RATES FOR THIS TIME STEP      M/T          PACKAGE NAME    
     ------------------                 ------------------------                     ----------------

           IN:                                      IN:
           ---                                      ---
     STORAGE-AQUEOUS =       1.0903E-11       STORAGE-AQUEOUS =       1.3044E-20     MST                              
                 WEL =           0.0000                   WEL =           0.0000     SSM_WEL1                         
                 WEL =       3.6000E-02                   WEL =       5.0000E-04     SSM_WEL2                         

            TOTAL IN =       3.6000E-02              TOTAL IN =       5.0000E-04

          OUT:                                     OUT:
          ----                                     ----
     STORAGE-AQUEOUS =       3.0080E-02       STORAGE-AQUEOUS =       3.0065E-04     MST                              
                 WEL =       5.9201E-03                   WEL =       1.9935E-04     SSM_WEL1                         
                 WEL =           0.0000                   WEL =           0.0000     SSM_WEL2                         

           TOTAL OUT =       3.6000E-02             TOTAL OUT =       5.0000E-04

            IN - OUT =      -3.1766E-08              IN - OUT =      -1.1754E-10

 PERCENT DISCREPANCY =          -0.00     PERCENT DISCREPANCY =          -0.00




         TIME SUMMARY AT END OF TIME STEP   36 IN STRESS PERIOD    1
                    SECONDS     MINUTES      HOURS       DAYS        YEARS
                    -----------------------------------------------------------
   TIME STEP LENGTH 1.72800E+05  2880.0      48.000      2.0000     5.47570E-03
 STRESS PERIOD TIME 6.22080E+06 1.03680E+05  1728.0      72.000     0.19713    
         TOTAL TIME 6.22080E+06 1.03680E+05  1728.0      72.000     0.19713    


end timestep


start timestep kper="1" kstp="37" mode="normal"

 UBDSV1 SAVING     FLOW-JA-FACE ON UNIT   1030 AT TIME STEP     37, STRESS PERIOD      1
 UBDSV1 SAVING  STORAGE-AQUEOUS ON UNIT   1030 AT TIME STEP     37, STRESS PERIOD      1
 UBDSV06 SAVING  SOURCE-SINK MIX IN MODEL SVA_TM_T         PACKAGE SVA_TM_T        CONNECTED TO MODEL SVA_TM_T         PACKAGE SSM              ON UNIT   1030 AT TIME STEP     37, STRESS PERIOD      1

 CONCENTRATION WILL BE SAVED ON UNIT 1031 AT END OF TIME STEP   37, STRESS PERIOD    1


  MASS BUDGET FOR ENTIRE MODEL AT END OF TIME STEP   37, STRESS PERIOD   1
  ---------------------------------------------------------------------------------------------------

     CUMULATIVE MASS      M       RATES FOR THIS TIME STEP      M/T          PACKAGE NAME    
     ------------------                 ------------------------                     ----------------

           IN:                                      IN:
           ---                                      ---
     STORAGE-AQUEOUS =       1.0903E-11       STORAGE-AQUEOUS =       1.0495E-20     MST                              
                 WEL =           0.0000                   WEL =           0.0000     SSM_WEL1                         
                 WEL =       3.7000E-02                   WEL =       5.0000E-04     SSM_WEL2                         

            TOTAL IN =       3.7000E-02              TOTAL IN =       5.0000E-04

          OUT:                                     OUT:
          ----                                     ----
     STORAGE-AQUEOUS =       3.0671E-02       STORAGE-AQUEOUS =       2.9565E-04     MST                              
                 WEL =       6.3288E-03                   WEL =       2.0435E-04     SSM_WEL1                         
                 WEL =           0.0000                   WEL =           0.0000     SSM_WEL2                         

           TOTAL OUT =       3.7000E-02             TOTAL OUT =       5.0000E-04

            IN - OUT =      -3.2132E-08              IN - OUT =      -1.8323E-10

 PERCENT DISCREPANCY =          -0.00     PERCENT DISCREPANCY =          -0.00




         TIME SUMMARY AT END OF TIME STEP   37 IN STRESS PERIOD    1
                    SECONDS     MINUTES      HOURS       DAYS        YEARS
                    -----------------------------------------------------------
   TIME STEP LENGTH 1.72800E+05  2880.0      48.000      2.0000     5.47570E-03
 STRESS PERIOD TIME 6.39360E+06 1.06560E+05  1776.0      74.000     0.20260    
         TOTAL TIME 6.39360E+06 1.06560E+05  1776.0      74.000     0.20260    


end timestep


start timestep kper="1" kstp="38" mode="normal"

 UBDSV1 SAVING     FLOW-JA-FACE ON UNIT   1030 AT TIME STEP     38, STRESS PERIOD      1
 UBDSV1 SAVING  STORAGE-AQUEOUS ON UNIT   1030 AT TIME STEP     38, STRESS PERIOD      1
 UBDSV06 SAVING  SOURCE-SINK MIX IN MODEL SVA_TM_T         PACKAGE SVA_TM_T        CONNECTED TO MODEL SVA_TM_T         PACKAGE SSM              ON UNIT   1030 AT TIME STEP     38, STRESS PERIOD      1

 CONCENTRATION WILL BE SAVED ON UNIT 1031 AT END OF TIME STEP   38, STRESS PERIOD    1


  MASS BUDGET FOR ENTIRE MODEL AT END OF TIME STEP   38, STRESS PERIOD   1
  ---------------------------------------------------------------------------------------------------

     CUMULATIVE MASS      M       RATES FOR THIS TIME STEP      M/T          PACKAGE NAME    
     ------------------                 ------------------------                     ----------------

           IN:                                      IN:
           ---                                      ---
     STORAGE-AQUEOUS =       1.0903E-11       STORAGE-AQUEOUS =       6.0066E-21     MST                              
                 WEL =           0.0000                   WEL =           0.0000     SSM_WEL1                         
                 WEL =       3.8000E-02                   WEL =       5.0000E-04     SSM_WEL2                         

            TOTAL IN =       3.8000E-02              TOTAL IN =       5.0000E-04

          OUT:                                     OUT:
          ----                                     ----
     STORAGE-AQUEOUS =       3.1253E-02       STORAGE-AQUEOUS =       2.9081E-04     MST                              
                 WEL =       6.7471E-03                   WEL =       2.0919E-04     SSM_WEL1                         
                 WEL =           0.0000                   WEL =           0.0000     SSM_WEL2                         

           TOTAL OUT =       3.8000E-02             TOTAL OUT =       5.0000E-04

            IN - OUT =      -3.2384E-08              IN - OUT =      -1.2597E-10

 PERCENT DISCREPANCY =          -0.00     PERCENT DISCREPANCY =          -0.00




         TIME SUMMARY AT END OF TIME STEP   38 IN STRESS PERIOD    1
                    SECONDS     MINUTES      HOURS       DAYS        YEARS
                    -----------------------------------------------------------
   TIME STEP LENGTH 1.72800E+05  2880.0      48.000      2.0000     5.47570E-03
 STRESS PERIOD TIME 6.56640E+06 1.09440E+05  1824.0      76.000     0.20808    
         TOTAL TIME 6.56640E+06 1.09440E+05  1824.0      76.000     0.20808    


end timestep


start timestep kper="1" kstp="39" mode="normal"

 UBDSV1 SAVING     FLOW-JA-FACE ON UNIT   1030 AT TIME STEP     39, STRESS PERIOD      1
 UBDSV1 SAVING  STORAGE-AQUEOUS ON UNIT   1030 AT TIME STEP     39, STRESS PERIOD      1
 UBDSV06 SAVING  SOURCE-SINK MIX IN MODEL SVA_TM_T         PACKAGE SVA_TM_T        CONNECTED TO MODEL SVA_TM_T         PACKAGE SSM              ON UNIT   1030 AT TIME STEP     39, STRESS PERIOD      1

 CONCENTRATION WILL BE SAVED ON UNIT 1031 AT END OF TIME STEP   39, STRESS PERIOD    1


  MASS BUDGET FOR ENTIRE MODEL AT END OF TIME STEP   39, STRESS PERIOD   1
  ---------------------------------------------------------------------------------------------------

     CUMULATIVE MASS      M       RATES FOR THIS TIME STEP      M/T          PACKAGE NAME    
     ------------------                 ------------------------                     ----------------

           IN:                                      IN:
           ---                                      ---
     STORAGE-AQUEOUS =       1.0903E-11       STORAGE-AQUEOUS =       5.4017E-21     MST                              
                 WEL =           0.0000                   WEL =           0.0000     SSM_WEL1                         
                 WEL =       3.9000E-02                   WEL =       5.0000E-04     SSM_WEL2                         

            TOTAL IN =       3.9000E-02              TOTAL IN =       5.0000E-04

          OUT:                                     OUT:
          ----                                     ----
     STORAGE-AQUEOUS =       3.1825E-02       STORAGE-AQUEOUS =       2.8612E-04     MST                              
                 WEL =       7.1749E-03                   WEL =       2.1388E-04     SSM_WEL1                         
                 WEL =           0.0000                   WEL =           0.0000     SSM_WEL2                         

           TOTAL OUT =       3.9000E-02             TOTAL OUT =       5.0000E-04

            IN - OUT =      -3.2781E-08              IN - OUT =      -1.9860E-10

 PERCENT DISCREPANCY =          -0.00     PERCENT DISCREPANCY =          -0.00




         TIME SUMMARY AT END OF TIME STEP   39 IN STRESS PERIOD    1
                    SECONDS     MINUTES      HOURS       DAYS        YEARS
                    -----------------------------------------------------------
   TIME STEP LENGTH 1.72800E+05  2880.0      48.000      2.0000     5.47570E-03
 STRESS PERIOD TIME 6.73920E+06 1.12320E+05  1872.0      78.000     0.21355    
         TOTAL TIME 6.73920E+06 1.12320E+05  1872.0      78.000     0.21355    


end timestep


start timestep kper="1" kstp="40" mode="normal"

 UBDSV1 SAVING     FLOW-JA-FACE ON UNIT   1030 AT TIME STEP     40, STRESS PERIOD      1
 UBDSV1 SAVING  STORAGE-AQUEOUS ON UNIT   1030 AT TIME STEP     40, STRESS PERIOD      1
 UBDSV06 SAVING  SOURCE-SINK MIX IN MODEL SVA_TM_T         PACKAGE SVA_TM_T        CONNECTED TO MODEL SVA_TM_T         PACKAGE SSM              ON UNIT   1030 AT TIME STEP     40, STRESS PERIOD      1

 CONCENTRATION WILL BE SAVED ON UNIT 1031 AT END OF TIME STEP   40, STRESS PERIOD    1


  MASS BUDGET FOR ENTIRE MODEL AT END OF TIME STEP   40, STRESS PERIOD   1
  ---------------------------------------------------------------------------------------------------

     CUMULATIVE MASS      M       RATES FOR THIS TIME STEP      M/T          PACKAGE NAME    
     ------------------                 ------------------------                     ----------------

           IN:                                      IN:
           ---                                      ---
     STORAGE-AQUEOUS =       1.0903E-11       STORAGE-AQUEOUS =       4.1519E-21     MST                              
                 WEL =           0.0000                   WEL =           0.0000     SSM_WEL1                         
                 WEL =       4.0000E-02                   WEL =       5.0000E-04     SSM_WEL2                         

            TOTAL IN =       4.0000E-02              TOTAL IN =       5.0000E-04

          OUT:                                     OUT:
          ----                                     ----
     STORAGE-AQUEOUS =       3.2388E-02       STORAGE-AQUEOUS =       2.8160E-04     MST                              
                 WEL =       7.6117E-03                   WEL =       2.1840E-04     SSM_WEL1                         
                 WEL =           0.0000                   WEL =           0.0000     SSM_WEL2                         

           TOTAL OUT =       4.0000E-02             TOTAL OUT =       5.0000E-04

            IN - OUT =      -3.3327E-08              IN - OUT =      -2.7286E-10

 PERCENT DISCREPANCY =          -0.00     PERCENT DISCREPANCY =          -0.00




         TIME SUMMARY AT END OF TIME STEP   40 IN STRESS PERIOD    1
                    SECONDS     MINUTES      HOURS       DAYS        YEARS
                    -----------------------------------------------------------
   TIME STEP LENGTH 1.72800E+05  2880.0      48.000      2.0000     5.47570E-03
 STRESS PERIOD TIME 6.91200E+06 1.15200E+05  1920.0      80.000     0.21903    
         TOTAL TIME 6.91200E+06 1.15200E+05  1920.0      80.000     0.21903    


end timestep


start timestep kper="1" kstp="41" mode="normal"

 UBDSV1 SAVING     FLOW-JA-FACE ON UNIT   1030 AT TIME STEP     41, STRESS PERIOD      1
 UBDSV1 SAVING  STORAGE-AQUEOUS ON UNIT   1030 AT TIME STEP     41, STRESS PERIOD      1
 UBDSV06 SAVING  SOURCE-SINK MIX IN MODEL SVA_TM_T         PACKAGE SVA_TM_T        CONNECTED TO MODEL SVA_TM_T         PACKAGE SSM              ON UNIT   1030 AT TIME STEP     41, STRESS PERIOD      1

 CONCENTRATION WILL BE SAVED ON UNIT 1031 AT END OF TIME STEP   41, STRESS PERIOD    1


  MASS BUDGET FOR ENTIRE MODEL AT END OF TIME STEP   41, STRESS PERIOD   1
  ---------------------------------------------------------------------------------------------------

     CUMULATIVE MASS      M       RATES FOR THIS TIME STEP      M/T          PACKAGE NAME    
     ------------------                 ------------------------                     ----------------

           IN:                                      IN:
           ---                                      ---
     STORAGE-AQUEOUS =       1.0903E-11       STORAGE-AQUEOUS =       2.6025E-21     MST                              
                 WEL =           0.0000                   WEL =           0.0000     SSM_WEL1                         
                 WEL =       4.1000E-02                   WEL =       5.0000E-04     SSM_WEL2                         

            TOTAL IN =       4.1000E-02              TOTAL IN =       5.0000E-04

          OUT:                                     OUT:
          ----                                     ----
     STORAGE-AQUEOUS =       3.2943E-02       STORAGE-AQUEOUS =       2.7724E-04     MST                              
                 WEL =       8.0572E-03                   WEL =       2.2276E-04     SSM_WEL1                         
                 WEL =           0.0000                   WEL =           0.0000     SSM_WEL2                         

           TOTAL OUT =       4.1000E-02             TOTAL OUT =       5.0000E-04

            IN - OUT =      -3.3824E-08              IN - OUT =      -2.4816E-10

 PERCENT DISCREPANCY =          -0.00     PERCENT DISCREPANCY =          -0.00




         TIME SUMMARY AT END OF TIME STEP   41 IN STRESS PERIOD    1
                    SECONDS     MINUTES      HOURS       DAYS        YEARS
                    -----------------------------------------------------------
   TIME STEP LENGTH 1.72800E+05  2880.0      48.000      2.0000     5.47570E-03
 STRESS PERIOD TIME 7.08480E+06 1.18080E+05  1968.0      82.000     0.22450    
         TOTAL TIME 7.08480E+06 1.18080E+05  1968.0      82.000     0.22450    


end timestep


start timestep kper="1" kstp="42" mode="normal"

 UBDSV1 SAVING     FLOW-JA-FACE ON UNIT   1030 AT TIME STEP     42, STRESS PERIOD      1
 UBDSV1 SAVING  STORAGE-AQUEOUS ON UNIT   1030 AT TIME STEP     42, STRESS PERIOD      1
 UBDSV06 SAVING  SOURCE-SINK MIX IN MODEL SVA_TM_T         PACKAGE SVA_TM_T        CONNECTED TO MODEL SVA_TM_T         PACKAGE SSM              ON UNIT   1030 AT TIME STEP     42, STRESS PERIOD      1

 CONCENTRATION WILL BE SAVED ON UNIT 1031 AT END OF TIME STEP   42, STRESS PERIOD    1


  MASS BUDGET FOR ENTIRE MODEL AT END OF TIME STEP   42, STRESS PERIOD   1
  ---------------------------------------------------------------------------------------------------

     CUMULATIVE MASS      M       RATES FOR THIS TIME STEP      M/T          PACKAGE NAME    
     ------------------                 ------------------------                     ----------------

           IN:                                      IN:
           ---                                      ---
     STORAGE-AQUEOUS =       1.0903E-11       STORAGE-AQUEOUS =       1.8814E-21     MST                              
                 WEL =           0.0000                   WEL =           0.0000     SSM_WEL1                         
                 WEL =       4.2000E-02                   WEL =       5.0000E-04     SSM_WEL2                         

            TOTAL IN =       4.2000E-02              TOTAL IN =       5.0000E-04

          OUT:                                     OUT:
          ----                                     ----
     STORAGE-AQUEOUS =       3.3489E-02       STORAGE-AQUEOUS =       2.7299E-04     MST                              
                 WEL =       8.5112E-03                   WEL =       2.2701E-04     SSM_WEL1                         
                 WEL =           0.0000                   WEL =           0.0000     SSM_WEL2                         

           TOTAL OUT =       4.2000E-02             TOTAL OUT =       5.0000E-04

            IN - OUT =      -3.4445E-08              IN - OUT =      -3.1090E-10

 PERCENT DISCREPANCY =          -0.00     PERCENT DISCREPANCY =          -0.00




         TIME SUMMARY AT END OF TIME STEP   42 IN STRESS PERIOD    1
                    SECONDS     MINUTES      HOURS       DAYS        YEARS
                    -----------------------------------------------------------
   TIME STEP LENGTH 1.72800E+05  2880.0      48.000      2.0000     5.47570E-03
 STRESS PERIOD TIME 7.25760E+06 1.20960E+05  2016.0      84.000     0.22998    
         TOTAL TIME 7.25760E+06 1.20960E+05  2016.0      84.000     0.22998    


end timestep


start timestep kper="1" kstp="43" mode="normal"

 UBDSV1 SAVING     FLOW-JA-FACE ON UNIT   1030 AT TIME STEP     43, STRESS PERIOD      1
 UBDSV1 SAVING  STORAGE-AQUEOUS ON UNIT   1030 AT TIME STEP     43, STRESS PERIOD      1
 UBDSV06 SAVING  SOURCE-SINK MIX IN MODEL SVA_TM_T         PACKAGE SVA_TM_T        CONNECTED TO MODEL SVA_TM_T         PACKAGE SSM              ON UNIT   1030 AT TIME STEP     43, STRESS PERIOD      1

 CONCENTRATION WILL BE SAVED ON UNIT 1031 AT END OF TIME STEP   43, STRESS PERIOD    1


  MASS BUDGET FOR ENTIRE MODEL AT END OF TIME STEP   43, STRESS PERIOD   1
  ---------------------------------------------------------------------------------------------------

     CUMULATIVE MASS      M       RATES FOR THIS TIME STEP      M/T          PACKAGE NAME    
     ------------------                 ------------------------                     ----------------

           IN:                                      IN:
           ---                                      ---
     STORAGE-AQUEOUS =       1.0903E-11       STORAGE-AQUEOUS =       1.2992E-21     MST                              
                 WEL =           0.0000                   WEL =           0.0000     SSM_WEL1                         
                 WEL =       4.3000E-02                   WEL =       5.0000E-04     SSM_WEL2                         

            TOTAL IN =       4.3000E-02              TOTAL IN =       5.0000E-04

          OUT:                                     OUT:
          ----                                     ----
     STORAGE-AQUEOUS =       3.4026E-02       STORAGE-AQUEOUS =       2.6883E-04     MST                              
                 WEL =       8.9736E-03                   WEL =       2.3117E-04     SSM_WEL1                         
                 WEL =           0.0000                   WEL =           0.0000     SSM_WEL2                         

           TOTAL OUT =       4.3000E-02             TOTAL OUT =       5.0000E-04

            IN - OUT =      -3.7165E-08              IN - OUT =      -1.3597E-09

 PERCENT DISCREPANCY =          -0.00     PERCENT DISCREPANCY =          -0.00




         TIME SUMMARY AT END OF TIME STEP   43 IN STRESS PERIOD    1
                    SECONDS     MINUTES      HOURS       DAYS        YEARS
                    -----------------------------------------------------------
   TIME STEP LENGTH 1.72800E+05  2880.0      48.000      2.0000     5.47570E-03
 STRESS PERIOD TIME 7.43040E+06 1.23840E+05  2064.0      86.000     0.23546    
         TOTAL TIME 7.43040E+06 1.23840E+05  2064.0      86.000     0.23546    


end timestep


start timestep kper="1" kstp="44" mode="normal"

 UBDSV1 SAVING     FLOW-JA-FACE ON UNIT   1030 AT TIME STEP     44, STRESS PERIOD      1
 UBDSV1 SAVING  STORAGE-AQUEOUS ON UNIT   1030 AT TIME STEP     44, STRESS PERIOD      1
 UBDSV06 SAVING  SOURCE-SINK MIX IN MODEL SVA_TM_T         PACKAGE SVA_TM_T        CONNECTED TO MODEL SVA_TM_T         PACKAGE SSM              ON UNIT   1030 AT TIME STEP     44, STRESS PERIOD      1

 CONCENTRATION WILL BE SAVED ON UNIT 1031 AT END OF TIME STEP   44, STRESS PERIOD    1


  MASS BUDGET FOR ENTIRE MODEL AT END OF TIME STEP   44, STRESS PERIOD   1
  ---------------------------------------------------------------------------------------------------

     CUMULATIVE MASS      M       RATES FOR THIS TIME STEP      M/T          PACKAGE NAME    
     ------------------                 ------------------------                     ----------------

           IN:                                      IN:
           ---                                      ---
     STORAGE-AQUEOUS =       1.0903E-11       STORAGE-AQUEOUS =       7.9971E-22     MST                              
                 WEL =           0.0000                   WEL =           0.0000     SSM_WEL1                         
                 WEL =       4.4000E-02                   WEL =       5.0000E-04     SSM_WEL2                         

            TOTAL IN =       4.4000E-02              TOTAL IN =       5.0000E-04

          OUT:                                     OUT:
          ----                                     ----
     STORAGE-AQUEOUS =       3.4556E-02       STORAGE-AQUEOUS =       2.6475E-04     MST                              
                 WEL =       9.4441E-03                   WEL =       2.3526E-04     SSM_WEL1                         
                 WEL =           0.0000                   WEL =           0.0000     SSM_WEL2                         

           TOTAL OUT =       4.4000E-02             TOTAL OUT =       5.0000E-04

            IN - OUT =      -4.6301E-08              IN - OUT =      -4.5680E-09

 PERCENT DISCREPANCY =          -0.00     PERCENT DISCREPANCY =          -0.00




         TIME SUMMARY AT END OF TIME STEP   44 IN STRESS PERIOD    1
                    SECONDS     MINUTES      HOURS       DAYS        YEARS
                    -----------------------------------------------------------
   TIME STEP LENGTH 1.72800E+05  2880.0      48.000      2.0000     5.47570E-03
 STRESS PERIOD TIME 7.60320E+06 1.26720E+05  2112.0      88.000     0.24093    
         TOTAL TIME 7.60320E+06 1.26720E+05  2112.0      88.000     0.24093    


end timestep


start timestep kper="1" kstp="45" mode="normal"

 UBDSV1 SAVING     FLOW-JA-FACE ON UNIT   1030 AT TIME STEP     45, STRESS PERIOD      1
 UBDSV1 SAVING  STORAGE-AQUEOUS ON UNIT   1030 AT TIME STEP     45, STRESS PERIOD      1
 UBDSV06 SAVING  SOURCE-SINK MIX IN MODEL SVA_TM_T         PACKAGE SVA_TM_T        CONNECTED TO MODEL SVA_TM_T         PACKAGE SSM              ON UNIT   1030 AT TIME STEP     45, STRESS PERIOD      1

 CONCENTRATION WILL BE SAVED ON UNIT 1031 AT END OF TIME STEP   45, STRESS PERIOD    1


  MASS BUDGET FOR ENTIRE MODEL AT END OF TIME STEP   45, STRESS PERIOD   1
  ---------------------------------------------------------------------------------------------------

     CUMULATIVE MASS      M       RATES FOR THIS TIME STEP      M/T          PACKAGE NAME    
     ------------------                 ------------------------                     ----------------

           IN:                                      IN:
           ---                                      ---
     STORAGE-AQUEOUS =       1.0903E-11       STORAGE-AQUEOUS =       6.6970E-22     MST                              
                 WEL =           0.0000                   WEL =           0.0000     SSM_WEL1                         
                 WEL =       4.5000E-02                   WEL =       5.0000E-04     SSM_WEL2                         

            TOTAL IN =       4.5000E-02              TOTAL IN =       5.0000E-04

          OUT:                                     OUT:
          ----                                     ----
     STORAGE-AQUEOUS =       3.5077E-02       STORAGE-AQUEOUS =       2.6074E-04     MST                              
                 WEL =       9.9226E-03                   WEL =       2.3926E-04     SSM_WEL1                         
                 WEL =           0.0000                   WEL =           0.0000     SSM_WEL2                         

           TOTAL OUT =       4.5000E-02             TOTAL OUT =       5.0000E-04

            IN - OUT =      -5.4909E-08              IN - OUT =      -4.3042E-09

 PERCENT DISCREPANCY =          -0.00     PERCENT DISCREPANCY =          -0.00




         TIME SUMMARY AT END OF TIME STEP   45 IN STRESS PERIOD    1
                    SECONDS     MINUTES      HOURS       DAYS        YEARS
                    -----------------------------------------------------------
   TIME STEP LENGTH 1.72800E+05  2880.0      48.000      2.0000     5.47570E-03
 STRESS PERIOD TIME 7.77600E+06 1.29600E+05  2160.0      90.000     0.24641    
         TOTAL TIME 7.77600E+06 1.29600E+05  2160.0      90.000     0.24641    


end timestep


start timestep kper="1" kstp="46" mode="normal"

 UBDSV1 SAVING     FLOW-JA-FACE ON UNIT   1030 AT TIME STEP     46, STRESS PERIOD      1
 UBDSV1 SAVING  STORAGE-AQUEOUS ON UNIT   1030 AT TIME STEP     46, STRESS PERIOD      1
 UBDSV06 SAVING  SOURCE-SINK MIX IN MODEL SVA_TM_T         PACKAGE SVA_TM_T        CONNECTED TO MODEL SVA_TM_T         PACKAGE SSM              ON UNIT   1030 AT TIME STEP     46, STRESS PERIOD      1

 CONCENTRATION WILL BE SAVED ON UNIT 1031 AT END OF TIME STEP   46, STRESS PERIOD    1


  MASS BUDGET FOR ENTIRE MODEL AT END OF TIME STEP   46, STRESS PERIOD   1
  ---------------------------------------------------------------------------------------------------

     CUMULATIVE MASS      M       RATES FOR THIS TIME STEP      M/T          PACKAGE NAME    
     ------------------                 ------------------------                     ----------------

           IN:                                      IN:
           ---                                      ---
     STORAGE-AQUEOUS =       1.0903E-11       STORAGE-AQUEOUS =       4.8843E-22     MST                              
                 WEL =           0.0000                   WEL =           0.0000     SSM_WEL1                         
                 WEL =       4.6000E-02                   WEL =       5.0000E-04     SSM_WEL2                         

            TOTAL IN =       4.6000E-02              TOTAL IN =       5.0000E-04

          OUT:                                     OUT:
          ----                                     ----
     STORAGE-AQUEOUS =       3.5591E-02       STORAGE-AQUEOUS =       2.5683E-04     MST                              
                 WEL =       1.0409E-02                   WEL =       2.4317E-04     SSM_WEL1                         
                 WEL =           0.0000                   WEL =           0.0000     SSM_WEL2                         

           TOTAL OUT =       4.6000E-02             TOTAL OUT =       5.0000E-04

            IN - OUT =      -5.9604E-08              IN - OUT =      -2.3476E-09

 PERCENT DISCREPANCY =          -0.00     PERCENT DISCREPANCY =          -0.00




         TIME SUMMARY AT END OF TIME STEP   46 IN STRESS PERIOD    1
                    SECONDS     MINUTES      HOURS       DAYS        YEARS
                    -----------------------------------------------------------
   TIME STEP LENGTH 1.72800E+05  2880.0      48.000      2.0000     5.47570E-03
 STRESS PERIOD TIME 7.94880E+06 1.32480E+05  2208.0      92.000     0.25188    
         TOTAL TIME 7.94880E+06 1.32480E+05  2208.0      92.000     0.25188    


end timestep


start timestep kper="1" kstp="47" mode="normal"

 UBDSV1 SAVING     FLOW-JA-FACE ON UNIT   1030 AT TIME STEP     47, STRESS PERIOD      1
 UBDSV1 SAVING  STORAGE-AQUEOUS ON UNIT   1030 AT TIME STEP     47, STRESS PERIOD      1
 UBDSV06 SAVING  SOURCE-SINK MIX IN MODEL SVA_TM_T         PACKAGE SVA_TM_T        CONNECTED TO MODEL SVA_TM_T         PACKAGE SSM              ON UNIT   1030 AT TIME STEP     47, STRESS PERIOD      1

 CONCENTRATION WILL BE SAVED ON UNIT 1031 AT END OF TIME STEP   47, STRESS PERIOD    1


  MASS BUDGET FOR ENTIRE MODEL AT END OF TIME STEP   47, STRESS PERIOD   1
  ---------------------------------------------------------------------------------------------------

     CUMULATIVE MASS      M       RATES FOR THIS TIME STEP      M/T          PACKAGE NAME    
     ------------------                 ------------------------                     ----------------

           IN:                                      IN:
           ---                                      ---
     STORAGE-AQUEOUS =       1.0903E-11       STORAGE-AQUEOUS =       3.6250E-22     MST                              
                 WEL =           0.0000                   WEL =           0.0000     SSM_WEL1                         
                 WEL =       4.7000E-02                   WEL =       5.0000E-04     SSM_WEL2                         

            TOTAL IN =       4.7000E-02              TOTAL IN =       5.0000E-04

          OUT:                                     OUT:
          ----                                     ----
     STORAGE-AQUEOUS =       3.6097E-02       STORAGE-AQUEOUS =       2.5301E-04     MST                              
                 WEL =       1.0903E-02                   WEL =       2.4699E-04     SSM_WEL1                         
                 WEL =           0.0000                   WEL =           0.0000     SSM_WEL2                         

           TOTAL OUT =       4.7000E-02             TOTAL OUT =       5.0000E-04

            IN - OUT =      -6.7144E-08              IN - OUT =      -3.7697E-09

 PERCENT DISCREPANCY =          -0.00     PERCENT DISCREPANCY =          -0.00




         TIME SUMMARY AT END OF TIME STEP   47 IN STRESS PERIOD    1
                    SECONDS     MINUTES      HOURS       DAYS        YEARS
                    -----------------------------------------------------------
   TIME STEP LENGTH 1.72800E+05  2880.0      48.000      2.0000     5.47570E-03
 STRESS PERIOD TIME 8.12160E+06 1.35360E+05  2256.0      94.000     0.25736    
         TOTAL TIME 8.12160E+06 1.35360E+05  2256.0      94.000     0.25736    


end timestep


start timestep kper="1" kstp="48" mode="normal"

 UBDSV1 SAVING     FLOW-JA-FACE ON UNIT   1030 AT TIME STEP     48, STRESS PERIOD      1
 UBDSV1 SAVING  STORAGE-AQUEOUS ON UNIT   1030 AT TIME STEP     48, STRESS PERIOD      1
 UBDSV06 SAVING  SOURCE-SINK MIX IN MODEL SVA_TM_T         PACKAGE SVA_TM_T        CONNECTED TO MODEL SVA_TM_T         PACKAGE SSM              ON UNIT   1030 AT TIME STEP     48, STRESS PERIOD      1

 CONCENTRATION WILL BE SAVED ON UNIT 1031 AT END OF TIME STEP   48, STRESS PERIOD    1


  MASS BUDGET FOR ENTIRE MODEL AT END OF TIME STEP   48, STRESS PERIOD   1
  ---------------------------------------------------------------------------------------------------

     CUMULATIVE MASS      M       RATES FOR THIS TIME STEP      M/T          PACKAGE NAME    
     ------------------                 ------------------------                     ----------------

           IN:                                      IN:
           ---                                      ---
     STORAGE-AQUEOUS =       1.0903E-11       STORAGE-AQUEOUS =       3.0562E-22     MST                              
                 WEL =           0.0000                   WEL =           0.0000     SSM_WEL1                         
                 WEL =       4.8000E-02                   WEL =       5.0000E-04     SSM_WEL2                         

            TOTAL IN =       4.8000E-02              TOTAL IN =       5.0000E-04

          OUT:                                     OUT:
          ----                                     ----
     STORAGE-AQUEOUS =       3.6596E-02       STORAGE-AQUEOUS =       2.4928E-04     MST                              
                 WEL =       1.1404E-02                   WEL =       2.5072E-04     SSM_WEL1                         
                 WEL =           0.0000                   WEL =           0.0000     SSM_WEL2                         

           TOTAL OUT =       4.8000E-02             TOTAL OUT =       5.0000E-04

            IN - OUT =      -7.0847E-08              IN - OUT =      -1.8515E-09

 PERCENT DISCREPANCY =          -0.00     PERCENT DISCREPANCY =          -0.00




         TIME SUMMARY AT END OF TIME STEP   48 IN STRESS PERIOD    1
                    SECONDS     MINUTES      HOURS       DAYS        YEARS
                    -----------------------------------------------------------
   TIME STEP LENGTH 1.72800E+05  2880.0      48.000      2.0000     5.47570E-03
 STRESS PERIOD TIME 8.29440E+06 1.38240E+05  2304.0      96.000     0.26283    
         TOTAL TIME 8.29440E+06 1.38240E+05  2304.0      96.000     0.26283    


end timestep


start timestep kper="1" kstp="49" mode="normal"

 UBDSV1 SAVING     FLOW-JA-FACE ON UNIT   1030 AT TIME STEP     49, STRESS PERIOD      1
 UBDSV1 SAVING  STORAGE-AQUEOUS ON UNIT   1030 AT TIME STEP     49, STRESS PERIOD      1
 UBDSV06 SAVING  SOURCE-SINK MIX IN MODEL SVA_TM_T         PACKAGE SVA_TM_T        CONNECTED TO MODEL SVA_TM_T         PACKAGE SSM              ON UNIT   1030 AT TIME STEP     49, STRESS PERIOD      1

 CONCENTRATION WILL BE SAVED ON UNIT 1031 AT END OF TIME STEP   49, STRESS PERIOD    1


  MASS BUDGET FOR ENTIRE MODEL AT END OF TIME STEP   49, STRESS PERIOD   1
  ---------------------------------------------------------------------------------------------------

     CUMULATIVE MASS      M       RATES FOR THIS TIME STEP      M/T          PACKAGE NAME    
     ------------------                 ------------------------                     ----------------

           IN:                                      IN:
           ---                                      ---
     STORAGE-AQUEOUS =       1.0903E-11       STORAGE-AQUEOUS =       2.4631E-22     MST                              
                 WEL =           0.0000                   WEL =           0.0000     SSM_WEL1                         
                 WEL =       4.9000E-02                   WEL =       5.0000E-04     SSM_WEL2                         

            TOTAL IN =       4.9000E-02              TOTAL IN =       5.0000E-04

          OUT:                                     OUT:
          ----                                     ----
     STORAGE-AQUEOUS =       3.7087E-02       STORAGE-AQUEOUS =       2.4564E-04     MST                              
                 WEL =       1.1913E-02                   WEL =       2.5436E-04     SSM_WEL1                         
                 WEL =           0.0000                   WEL =           0.0000     SSM_WEL2                         

           TOTAL OUT =       4.9000E-02             TOTAL OUT =       5.0000E-04

            IN - OUT =      -7.3555E-08              IN - OUT =      -1.3544E-09

 PERCENT DISCREPANCY =          -0.00     PERCENT DISCREPANCY =          -0.00




         TIME SUMMARY AT END OF TIME STEP   49 IN STRESS PERIOD    1
                    SECONDS     MINUTES      HOURS       DAYS        YEARS
                    -----------------------------------------------------------
   TIME STEP LENGTH 1.72800E+05  2880.0      48.000      2.0000     5.47570E-03
 STRESS PERIOD TIME 8.46720E+06 1.41120E+05  2352.0      98.000     0.26831    
         TOTAL TIME 8.46720E+06 1.41120E+05  2352.0      98.000     0.26831    


end timestep


start timestep kper="1" kstp="50" mode="normal"

 UBDSV1 SAVING     FLOW-JA-FACE ON UNIT   1030 AT TIME STEP     50, STRESS PERIOD      1
 UBDSV1 SAVING  STORAGE-AQUEOUS ON UNIT   1030 AT TIME STEP     50, STRESS PERIOD      1
 UBDSV06 SAVING  SOURCE-SINK MIX IN MODEL SVA_TM_T         PACKAGE SVA_TM_T        CONNECTED TO MODEL SVA_TM_T         PACKAGE SSM              ON UNIT   1030 AT TIME STEP     50, STRESS PERIOD      1

 CONCENTRATION WILL BE SAVED ON UNIT 1031 AT END OF TIME STEP   50, STRESS PERIOD    1


  MASS BUDGET FOR ENTIRE MODEL AT END OF TIME STEP   50, STRESS PERIOD   1
  ---------------------------------------------------------------------------------------------------

     CUMULATIVE MASS      M       RATES FOR THIS TIME STEP      M/T          PACKAGE NAME    
     ------------------                 ------------------------                     ----------------

           IN:                                      IN:
           ---                                      ---
     STORAGE-AQUEOUS =       1.0903E-11       STORAGE-AQUEOUS =       1.8577E-22     MST                              
                 WEL =           0.0000                   WEL =           0.0000     SSM_WEL1                         
                 WEL =       5.0000E-02                   WEL =       5.0000E-04     SSM_WEL2                         

            TOTAL IN =       5.0000E-02              TOTAL IN =       5.0000E-04

          OUT:                                     OUT:
          ----                                     ----
     STORAGE-AQUEOUS =       3.7571E-02       STORAGE-AQUEOUS =       2.4208E-04     MST                              
                 WEL =       1.2429E-02                   WEL =       2.5792E-04     SSM_WEL1                         
                 WEL =           0.0000                   WEL =           0.0000     SSM_WEL2                         

           TOTAL OUT =       5.0000E-02             TOTAL OUT =       5.0000E-04

            IN - OUT =      -8.0960E-08              IN - OUT =      -3.7024E-09

 PERCENT DISCREPANCY =          -0.00     PERCENT DISCREPANCY =          -0.00




         TIME SUMMARY AT END OF TIME STEP   50 IN STRESS PERIOD    1
                    SECONDS     MINUTES      HOURS       DAYS        YEARS
                    -----------------------------------------------------------
   TIME STEP LENGTH 1.72800E+05  2880.0      48.000      2.0000     5.47570E-03
 STRESS PERIOD TIME 8.64000E+06 1.44000E+05  2400.0      100.00     0.27379    
         TOTAL TIME 8.64000E+06 1.44000E+05  2400.0      100.00     0.27379    


end timestep


start timestep kper="1" kstp="51" mode="normal"

 UBDSV1 SAVING     FLOW-JA-FACE ON UNIT   1030 AT TIME STEP     51, STRESS PERIOD      1
 UBDSV1 SAVING  STORAGE-AQUEOUS ON UNIT   1030 AT TIME STEP     51, STRESS PERIOD      1
 UBDSV06 SAVING  SOURCE-SINK MIX IN MODEL SVA_TM_T         PACKAGE SVA_TM_T        CONNECTED TO MODEL SVA_TM_T         PACKAGE SSM              ON UNIT   1030 AT TIME STEP     51, STRESS PERIOD      1

 CONCENTRATION WILL BE SAVED ON UNIT 1031 AT END OF TIME STEP   51, STRESS PERIOD    1


  MASS BUDGET FOR ENTIRE MODEL AT END OF TIME STEP   51, STRESS PERIOD   1
  ---------------------------------------------------------------------------------------------------

     CUMULATIVE MASS      M       RATES FOR THIS TIME STEP      M/T          PACKAGE NAME    
     ------------------                 ------------------------                     ----------------

           IN:                                      IN:
           ---                                      ---
     STORAGE-AQUEOUS =       1.0903E-11       STORAGE-AQUEOUS =       1.4964E-22     MST                              
                 WEL =           0.0000                   WEL =           0.0000     SSM_WEL1                         
                 WEL =       5.1000E-02                   WEL =       5.0000E-04     SSM_WEL2                         

            TOTAL IN =       5.1000E-02              TOTAL IN =       5.0000E-04

          OUT:                                     OUT:
          ----                                     ----
     STORAGE-AQUEOUS =       3.8048E-02       STORAGE-AQUEOUS =       2.3859E-04     MST                              
                 WEL =       1.2952E-02                   WEL =       2.6141E-04     SSM_WEL1                         
                 WEL =           0.0000                   WEL =           0.0000     SSM_WEL2                         

           TOTAL OUT =       5.1000E-02             TOTAL OUT =       5.0000E-04

            IN - OUT =      -8.8111E-08              IN - OUT =      -3.5754E-09

 PERCENT DISCREPANCY =          -0.00     PERCENT DISCREPANCY =          -0.00




         TIME SUMMARY AT END OF TIME STEP   51 IN STRESS PERIOD    1
                    SECONDS     MINUTES      HOURS       DAYS        YEARS
                    -----------------------------------------------------------
   TIME STEP LENGTH 1.72800E+05  2880.0      48.000      2.0000     5.47570E-03
 STRESS PERIOD TIME 8.81280E+06 1.46880E+05  2448.0      102.00     0.27926    
         TOTAL TIME 8.81280E+06 1.46880E+05  2448.0      102.00     0.27926    


end timestep


start timestep kper="1" kstp="52" mode="normal"

 UBDSV1 SAVING     FLOW-JA-FACE ON UNIT   1030 AT TIME STEP     52, STRESS PERIOD      1
 UBDSV1 SAVING  STORAGE-AQUEOUS ON UNIT   1030 AT TIME STEP     52, STRESS PERIOD      1
 UBDSV06 SAVING  SOURCE-SINK MIX IN MODEL SVA_TM_T         PACKAGE SVA_TM_T        CONNECTED TO MODEL SVA_TM_T         PACKAGE SSM              ON UNIT   1030 AT TIME STEP     52, STRESS PERIOD      1

 CONCENTRATION WILL BE SAVED ON UNIT 1031 AT END OF TIME STEP   52, STRESS PERIOD    1


  MASS BUDGET FOR ENTIRE MODEL AT END OF TIME STEP   52, STRESS PERIOD   1
  ---------------------------------------------------------------------------------------------------

     CUMULATIVE MASS      M       RATES FOR THIS TIME STEP      M/T          PACKAGE NAME    
     ------------------                 ------------------------                     ----------------

           IN:                                      IN:
           ---                                      ---
     STORAGE-AQUEOUS =       1.0903E-11       STORAGE-AQUEOUS =       1.2597E-22     MST                              
                 WEL =           0.0000                   WEL =           0.0000     SSM_WEL1                         
                 WEL =       5.2000E-02                   WEL =       5.0000E-04     SSM_WEL2                         

            TOTAL IN =       5.2000E-02              TOTAL IN =       5.0000E-04

          OUT:                                     OUT:
          ----                                     ----
     STORAGE-AQUEOUS =       3.8519E-02       STORAGE-AQUEOUS =       2.3519E-04     MST                              
                 WEL =       1.3481E-02                   WEL =       2.6482E-04     SSM_WEL1                         
                 WEL =           0.0000                   WEL =           0.0000     SSM_WEL2                         

           TOTAL OUT =       5.2000E-02             TOTAL OUT =       5.0000E-04

            IN - OUT =      -9.4925E-08              IN - OUT =      -3.4071E-09

 PERCENT DISCREPANCY =          -0.00     PERCENT DISCREPANCY =          -0.00




         TIME SUMMARY AT END OF TIME STEP   52 IN STRESS PERIOD    1
                    SECONDS     MINUTES      HOURS       DAYS        YEARS
                    -----------------------------------------------------------
   TIME STEP LENGTH 1.72800E+05  2880.0      48.000      2.0000     5.47570E-03
 STRESS PERIOD TIME 8.98560E+06 1.49760E+05  2496.0      104.00     0.28474    
         TOTAL TIME 8.98560E+06 1.49760E+05  2496.0      104.00     0.28474    


end timestep


start timestep kper="1" kstp="53" mode="normal"

 UBDSV1 SAVING     FLOW-JA-FACE ON UNIT   1030 AT TIME STEP     53, STRESS PERIOD      1
 UBDSV1 SAVING  STORAGE-AQUEOUS ON UNIT   1030 AT TIME STEP     53, STRESS PERIOD      1
 UBDSV06 SAVING  SOURCE-SINK MIX IN MODEL SVA_TM_T         PACKAGE SVA_TM_T        CONNECTED TO MODEL SVA_TM_T         PACKAGE SSM              ON UNIT   1030 AT TIME STEP     53, STRESS PERIOD      1

 CONCENTRATION WILL BE SAVED ON UNIT 1031 AT END OF TIME STEP   53, STRESS PERIOD    1


  MASS BUDGET FOR ENTIRE MODEL AT END OF TIME STEP   53, STRESS PERIOD   1
  ---------------------------------------------------------------------------------------------------

     CUMULATIVE MASS      M       RATES FOR THIS TIME STEP      M/T          PACKAGE NAME    
     ------------------                 ------------------------                     ----------------

           IN:                                      IN:
           ---                                      ---
     STORAGE-AQUEOUS =       1.0903E-11       STORAGE-AQUEOUS =       1.0316E-22     MST                              
                 WEL =           0.0000                   WEL =           0.0000     SSM_WEL1                         
                 WEL =       5.3000E-02                   WEL =       5.0000E-04     SSM_WEL2                         

            TOTAL IN =       5.3000E-02              TOTAL IN =       5.0000E-04

          OUT:                                     OUT:
          ----                                     ----
     STORAGE-AQUEOUS =       3.8982E-02       STORAGE-AQUEOUS =       2.3186E-04     MST                              
                 WEL =       1.4018E-02                   WEL =       2.6814E-04     SSM_WEL1                         
                 WEL =           0.0000                   WEL =           0.0000     SSM_WEL2                         

           TOTAL OUT =       5.3000E-02             TOTAL OUT =       5.0000E-04

            IN - OUT =      -1.0142E-07              IN - OUT =      -3.2475E-09

 PERCENT DISCREPANCY =          -0.00     PERCENT DISCREPANCY =          -0.00




         TIME SUMMARY AT END OF TIME STEP   53 IN STRESS PERIOD    1
                    SECONDS     MINUTES      HOURS       DAYS        YEARS
                    -----------------------------------------------------------
   TIME STEP LENGTH 1.72800E+05  2880.0      48.000      2.0000     5.47570E-03
 STRESS PERIOD TIME 9.15840E+06 1.52640E+05  2544.0      106.00     0.29021    
         TOTAL TIME 9.15840E+06 1.52640E+05  2544.0      106.00     0.29021    


end timestep


start timestep kper="1" kstp="54" mode="normal"

 UBDSV1 SAVING     FLOW-JA-FACE ON UNIT   1030 AT TIME STEP     54, STRESS PERIOD      1
 UBDSV1 SAVING  STORAGE-AQUEOUS ON UNIT   1030 AT TIME STEP     54, STRESS PERIOD      1
 UBDSV06 SAVING  SOURCE-SINK MIX IN MODEL SVA_TM_T         PACKAGE SVA_TM_T        CONNECTED TO MODEL SVA_TM_T         PACKAGE SSM              ON UNIT   1030 AT TIME STEP     54, STRESS PERIOD      1

 CONCENTRATION WILL BE SAVED ON UNIT 1031 AT END OF TIME STEP   54, STRESS PERIOD    1


  MASS BUDGET FOR ENTIRE MODEL AT END OF TIME STEP   54, STRESS PERIOD   1
  ---------------------------------------------------------------------------------------------------

     CUMULATIVE MASS      M       RATES FOR THIS TIME STEP      M/T          PACKAGE NAME    
     ------------------                 ------------------------                     ----------------

           IN:                                      IN:
           ---                                      ---
     STORAGE-AQUEOUS =       1.0903E-11       STORAGE-AQUEOUS =       8.3641E-23     MST                              
                 WEL =           0.0000                   WEL =           0.0000     SSM_WEL1                         
                 WEL =       5.4000E-02                   WEL =       5.0000E-04     SSM_WEL2                         

            TOTAL IN =       5.4000E-02              TOTAL IN =       5.0000E-04

          OUT:                                     OUT:
          ----                                     ----
     STORAGE-AQUEOUS =       3.9440E-02       STORAGE-AQUEOUS =       2.2862E-04     MST                              
                 WEL =       1.4560E-02                   WEL =       2.7138E-04     SSM_WEL1                         
                 WEL =           0.0000                   WEL =           0.0000     SSM_WEL2                         

           TOTAL OUT =       5.4000E-02             TOTAL OUT =       5.0000E-04

            IN - OUT =      -1.0742E-07              IN - OUT =      -2.9997E-09

 PERCENT DISCREPANCY =          -0.00     PERCENT DISCREPANCY =          -0.00




         TIME SUMMARY AT END OF TIME STEP   54 IN STRESS PERIOD    1
                    SECONDS     MINUTES      HOURS       DAYS        YEARS
                    -----------------------------------------------------------
   TIME STEP LENGTH 1.72800E+05  2880.0      48.000      2.0000     5.47570E-03
 STRESS PERIOD TIME 9.33120E+06 1.55520E+05  2592.0      108.00     0.29569    
         TOTAL TIME 9.33120E+06 1.55520E+05  2592.0      108.00     0.29569    


end timestep


start timestep kper="1" kstp="55" mode="normal"

 UBDSV1 SAVING     FLOW-JA-FACE ON UNIT   1030 AT TIME STEP     55, STRESS PERIOD      1
 UBDSV1 SAVING  STORAGE-AQUEOUS ON UNIT   1030 AT TIME STEP     55, STRESS PERIOD      1
 UBDSV06 SAVING  SOURCE-SINK MIX IN MODEL SVA_TM_T         PACKAGE SVA_TM_T        CONNECTED TO MODEL SVA_TM_T         PACKAGE SSM              ON UNIT   1030 AT TIME STEP     55, STRESS PERIOD      1

 CONCENTRATION WILL BE SAVED ON UNIT 1031 AT END OF TIME STEP   55, STRESS PERIOD    1


  MASS BUDGET FOR ENTIRE MODEL AT END OF TIME STEP   55, STRESS PERIOD   1
  ---------------------------------------------------------------------------------------------------

     CUMULATIVE MASS      M       RATES FOR THIS TIME STEP      M/T          PACKAGE NAME    
     ------------------                 ------------------------                     ----------------

           IN:                                      IN:
           ---                                      ---
     STORAGE-AQUEOUS =       1.0903E-11       STORAGE-AQUEOUS =       7.0124E-23     MST                              
                 WEL =           0.0000                   WEL =           0.0000     SSM_WEL1                         
                 WEL =       5.5000E-02                   WEL =       5.0000E-04     SSM_WEL2                         

            TOTAL IN =       5.5000E-02              TOTAL IN =       5.0000E-04

          OUT:                                     OUT:
          ----                                     ----
     STORAGE-AQUEOUS =       3.9891E-02       STORAGE-AQUEOUS =       2.2546E-04     MST                              
                 WEL =       1.5110E-02                   WEL =       2.7454E-04     SSM_WEL1                         
                 WEL =           0.0000                   WEL =           0.0000     SSM_WEL2                         

           TOTAL OUT =       5.5000E-02             TOTAL OUT =       5.0000E-04

            IN - OUT =      -1.1343E-07              IN - OUT =      -3.0029E-09

 PERCENT DISCREPANCY =          -0.00     PERCENT DISCREPANCY =          -0.00




         TIME SUMMARY AT END OF TIME STEP   55 IN STRESS PERIOD    1
                    SECONDS     MINUTES      HOURS       DAYS        YEARS
                    -----------------------------------------------------------
   TIME STEP LENGTH 1.72800E+05  2880.0      48.000      2.0000     5.47570E-03
 STRESS PERIOD TIME 9.50400E+06 1.58400E+05  2640.0      110.00     0.30116    
         TOTAL TIME 9.50400E+06 1.58400E+05  2640.0      110.00     0.30116    


end timestep


start timestep kper="1" kstp="56" mode="normal"

 UBDSV1 SAVING     FLOW-JA-FACE ON UNIT   1030 AT TIME STEP     56, STRESS PERIOD      1
 UBDSV1 SAVING  STORAGE-AQUEOUS ON UNIT   1030 AT TIME STEP     56, STRESS PERIOD      1
 UBDSV06 SAVING  SOURCE-SINK MIX IN MODEL SVA_TM_T         PACKAGE SVA_TM_T        CONNECTED TO MODEL SVA_TM_T         PACKAGE SSM              ON UNIT   1030 AT TIME STEP     56, STRESS PERIOD      1

 CONCENTRATION WILL BE SAVED ON UNIT 1031 AT END OF TIME STEP   56, STRESS PERIOD    1


  MASS BUDGET FOR ENTIRE MODEL AT END OF TIME STEP   56, STRESS PERIOD   1
  ---------------------------------------------------------------------------------------------------

     CUMULATIVE MASS      M       RATES FOR THIS TIME STEP      M/T          PACKAGE NAME    
     ------------------                 ------------------------                     ----------------

           IN:                                      IN:
           ---                                      ---
     STORAGE-AQUEOUS =       1.0903E-11       STORAGE-AQUEOUS =       5.6912E-23     MST                              
                 WEL =           0.0000                   WEL =           0.0000     SSM_WEL1                         
                 WEL =       5.6000E-02                   WEL =       5.0000E-04     SSM_WEL2                         

            TOTAL IN =       5.6000E-02              TOTAL IN =       5.0000E-04

          OUT:                                     OUT:
          ----                                     ----
     STORAGE-AQUEOUS =       4.0335E-02       STORAGE-AQUEOUS =       2.2238E-04     MST                              
                 WEL =       1.5665E-02                   WEL =       2.7763E-04     SSM_WEL1                         
                 WEL =           0.0000                   WEL =           0.0000     SSM_WEL2                         

           TOTAL OUT =       5.6000E-02             TOTAL OUT =       5.0000E-04

            IN - OUT =      -1.1955E-07              IN - OUT =      -3.0637E-09

 PERCENT DISCREPANCY =          -0.00     PERCENT DISCREPANCY =          -0.00




         TIME SUMMARY AT END OF TIME STEP   56 IN STRESS PERIOD    1
                    SECONDS     MINUTES      HOURS       DAYS        YEARS
                    -----------------------------------------------------------
   TIME STEP LENGTH 1.72800E+05  2880.0      48.000      2.0000     5.47570E-03
 STRESS PERIOD TIME 9.67680E+06 1.61280E+05  2688.0      112.00     0.30664    
         TOTAL TIME 9.67680E+06 1.61280E+05  2688.0      112.00     0.30664    


end timestep


start timestep kper="1" kstp="57" mode="normal"

 UBDSV1 SAVING     FLOW-JA-FACE ON UNIT   1030 AT TIME STEP     57, STRESS PERIOD      1
 UBDSV1 SAVING  STORAGE-AQUEOUS ON UNIT   1030 AT TIME STEP     57, STRESS PERIOD      1
 UBDSV06 SAVING  SOURCE-SINK MIX IN MODEL SVA_TM_T         PACKAGE SVA_TM_T        CONNECTED TO MODEL SVA_TM_T         PACKAGE SSM              ON UNIT   1030 AT TIME STEP     57, STRESS PERIOD      1

 CONCENTRATION WILL BE SAVED ON UNIT 1031 AT END OF TIME STEP   57, STRESS PERIOD    1


  MASS BUDGET FOR ENTIRE MODEL AT END OF TIME STEP   57, STRESS PERIOD   1
  ---------------------------------------------------------------------------------------------------

     CUMULATIVE MASS      M       RATES FOR THIS TIME STEP      M/T          PACKAGE NAME    
     ------------------                 ------------------------                     ----------------

           IN:                                      IN:
           ---                                      ---
     STORAGE-AQUEOUS =       1.0903E-11       STORAGE-AQUEOUS =       4.8354E-23     MST                              
                 WEL =           0.0000                   WEL =           0.0000     SSM_WEL1                         
                 WEL =       5.7000E-02                   WEL =       5.0000E-04     SSM_WEL2                         

            TOTAL IN =       5.7000E-02              TOTAL IN =       5.0000E-04

          OUT:                                     OUT:
          ----                                     ----
     STORAGE-AQUEOUS =       4.0774E-02       STORAGE-AQUEOUS =       2.1937E-04     MST                              
                 WEL =       1.6226E-02                   WEL =       2.8063E-04     SSM_WEL1                         
                 WEL =           0.0000                   WEL =           0.0000     SSM_WEL2                         

           TOTAL OUT =       5.7000E-02             TOTAL OUT =       5.0000E-04

            IN - OUT =      -1.2569E-07              IN - OUT =      -3.0699E-09

 PERCENT DISCREPANCY =          -0.00     PERCENT DISCREPANCY =          -0.00




         TIME SUMMARY AT END OF TIME STEP   57 IN STRESS PERIOD    1
                    SECONDS     MINUTES      HOURS       DAYS        YEARS
                    -----------------------------------------------------------
   TIME STEP LENGTH 1.72800E+05  2880.0      48.000      2.0000     5.47570E-03
 STRESS PERIOD TIME 9.84960E+06 1.64160E+05  2736.0      114.00     0.31211    
         TOTAL TIME 9.84960E+06 1.64160E+05  2736.0      114.00     0.31211    


end timestep


start timestep kper="1" kstp="58" mode="normal"

 UBDSV1 SAVING     FLOW-JA-FACE ON UNIT   1030 AT TIME STEP     58, STRESS PERIOD      1
 UBDSV1 SAVING  STORAGE-AQUEOUS ON UNIT   1030 AT TIME STEP     58, STRESS PERIOD      1
 UBDSV06 SAVING  SOURCE-SINK MIX IN MODEL SVA_TM_T         PACKAGE SVA_TM_T        CONNECTED TO MODEL SVA_TM_T         PACKAGE SSM              ON UNIT   1030 AT TIME STEP     58, STRESS PERIOD      1

 CONCENTRATION WILL BE SAVED ON UNIT 1031 AT END OF TIME STEP   58, STRESS PERIOD    1


  MASS BUDGET FOR ENTIRE MODEL AT END OF TIME STEP   58, STRESS PERIOD   1
  ---------------------------------------------------------------------------------------------------

     CUMULATIVE MASS      M       RATES FOR THIS TIME STEP      M/T          PACKAGE NAME    
     ------------------                 ------------------------                     ----------------

           IN:                                      IN:
           ---                                      ---
     STORAGE-AQUEOUS =       1.0903E-11       STORAGE-AQUEOUS =       4.0318E-23     MST                              
                 WEL =           0.0000                   WEL =           0.0000     SSM_WEL1                         
                 WEL =       5.8000E-02                   WEL =       5.0000E-04     SSM_WEL2                         

            TOTAL IN =       5.8000E-02              TOTAL IN =       5.0000E-04

          OUT:                                     OUT:
          ----                                     ----
     STORAGE-AQUEOUS =       4.1207E-02       STORAGE-AQUEOUS =       2.1644E-04     MST                              
                 WEL =       1.6793E-02                   WEL =       2.8357E-04     SSM_WEL1                         
                 WEL =           0.0000                   WEL =           0.0000     SSM_WEL2                         

           TOTAL OUT =       5.8000E-02             TOTAL OUT =       5.0000E-04

            IN - OUT =      -1.3203E-07              IN - OUT =      -3.1683E-09

 PERCENT DISCREPANCY =          -0.00     PERCENT DISCREPANCY =          -0.00




         TIME SUMMARY AT END OF TIME STEP   58 IN STRESS PERIOD    1
                    SECONDS     MINUTES      HOURS       DAYS        YEARS
                    -----------------------------------------------------------
   TIME STEP LENGTH 1.72800E+05  2880.0      48.000      2.0000     5.47570E-03
 STRESS PERIOD TIME 1.00224E+07 1.67040E+05  2784.0      116.00     0.31759    
         TOTAL TIME 1.00224E+07 1.67040E+05  2784.0      116.00     0.31759    


end timestep


start timestep kper="1" kstp="59" mode="normal"

 UBDSV1 SAVING     FLOW-JA-FACE ON UNIT   1030 AT TIME STEP     59, STRESS PERIOD      1
 UBDSV1 SAVING  STORAGE-AQUEOUS ON UNIT   1030 AT TIME STEP     59, STRESS PERIOD      1
 UBDSV06 SAVING  SOURCE-SINK MIX IN MODEL SVA_TM_T         PACKAGE SVA_TM_T        CONNECTED TO MODEL SVA_TM_T         PACKAGE SSM              ON UNIT   1030 AT TIME STEP     59, STRESS PERIOD      1

 CONCENTRATION WILL BE SAVED ON UNIT 1031 AT END OF TIME STEP   59, STRESS PERIOD    1


  MASS BUDGET FOR ENTIRE MODEL AT END OF TIME STEP   59, STRESS PERIOD   1
  ---------------------------------------------------------------------------------------------------

     CUMULATIVE MASS      M       RATES FOR THIS TIME STEP      M/T          PACKAGE NAME    
     ------------------                 ------------------------                     ----------------

           IN:                                      IN:
           ---                                      ---
     STORAGE-AQUEOUS =       1.0903E-11       STORAGE-AQUEOUS =       3.1882E-23     MST                              
                 WEL =           0.0000                   WEL =           0.0000     SSM_WEL1                         
                 WEL =       5.9000E-02                   WEL =       5.0000E-04     SSM_WEL2                         

            TOTAL IN =       5.9000E-02              TOTAL IN =       5.0000E-04

          OUT:                                     OUT:
          ----                                     ----
     STORAGE-AQUEOUS =       4.1634E-02       STORAGE-AQUEOUS =       2.1357E-04     MST                              
                 WEL =       1.7366E-02                   WEL =       2.8643E-04     SSM_WEL1                         
                 WEL =           0.0000                   WEL =           0.0000     SSM_WEL2                         

           TOTAL OUT =       5.9000E-02             TOTAL OUT =       5.0000E-04

            IN - OUT =      -1.3853E-07              IN - OUT =      -3.2512E-09

 PERCENT DISCREPANCY =          -0.00     PERCENT DISCREPANCY =          -0.00




         TIME SUMMARY AT END OF TIME STEP   59 IN STRESS PERIOD    1
                    SECONDS     MINUTES      HOURS       DAYS        YEARS
                    -----------------------------------------------------------
   TIME STEP LENGTH 1.72800E+05  2880.0      48.000      2.0000     5.47570E-03
 STRESS PERIOD TIME 1.01952E+07 1.69920E+05  2832.0      118.00     0.32307    
         TOTAL TIME 1.01952E+07 1.69920E+05  2832.0      118.00     0.32307    


end timestep


start timestep kper="1" kstp="60" mode="normal"

 UBDSV1 SAVING     FLOW-JA-FACE ON UNIT   1030 AT TIME STEP     60, STRESS PERIOD      1
 UBDSV1 SAVING  STORAGE-AQUEOUS ON UNIT   1030 AT TIME STEP     60, STRESS PERIOD      1
 UBDSV06 SAVING  SOURCE-SINK MIX IN MODEL SVA_TM_T         PACKAGE SVA_TM_T        CONNECTED TO MODEL SVA_TM_T         PACKAGE SSM              ON UNIT   1030 AT TIME STEP     60, STRESS PERIOD      1

 CONCENTRATION WILL BE SAVED ON UNIT 1031 AT END OF TIME STEP   60, STRESS PERIOD    1


  MASS BUDGET FOR ENTIRE MODEL AT END OF TIME STEP   60, STRESS PERIOD   1
  ---------------------------------------------------------------------------------------------------

     CUMULATIVE MASS      M       RATES FOR THIS TIME STEP      M/T          PACKAGE NAME    
     ------------------                 ------------------------                     ----------------

           IN:                                      IN:
           ---                                      ---
     STORAGE-AQUEOUS =       1.0903E-11       STORAGE-AQUEOUS =       2.7094E-23     MST                              
                 WEL =           0.0000                   WEL =           0.0000     SSM_WEL1                         
                 WEL =       6.0000E-02                   WEL =       5.0000E-04     SSM_WEL2                         

            TOTAL IN =       6.0000E-02              TOTAL IN =       5.0000E-04

          OUT:                                     OUT:
          ----                                     ----
     STORAGE-AQUEOUS =       4.2056E-02       STORAGE-AQUEOUS =       2.1078E-04     MST                              
                 WEL =       1.7944E-02                   WEL =       2.8922E-04     SSM_WEL1                         
                 WEL =           0.0000                   WEL =           0.0000     SSM_WEL2                         

           TOTAL OUT =       6.0000E-02             TOTAL OUT =       5.0000E-04

            IN - OUT =      -1.4596E-07              IN - OUT =      -3.7134E-09

 PERCENT DISCREPANCY =          -0.00     PERCENT DISCREPANCY =          -0.00




         TIME SUMMARY AT END OF TIME STEP   60 IN STRESS PERIOD    1
                    SECONDS     MINUTES      HOURS       DAYS        YEARS
                    -----------------------------------------------------------
   TIME STEP LENGTH 1.72800E+05  2880.0      48.000      2.0000     5.47570E-03
 STRESS PERIOD TIME 1.03680E+07 1.72800E+05  2880.0      120.00     0.32854    
         TOTAL TIME 1.03680E+07 1.72800E+05  2880.0      120.00     0.32854    


end timestep


start timestep kper="1" kstp="61" mode="normal"

 UBDSV1 SAVING     FLOW-JA-FACE ON UNIT   1030 AT TIME STEP     61, STRESS PERIOD      1
 UBDSV1 SAVING  STORAGE-AQUEOUS ON UNIT   1030 AT TIME STEP     61, STRESS PERIOD      1
 UBDSV06 SAVING  SOURCE-SINK MIX IN MODEL SVA_TM_T         PACKAGE SVA_TM_T        CONNECTED TO MODEL SVA_TM_T         PACKAGE SSM              ON UNIT   1030 AT TIME STEP     61, STRESS PERIOD      1

 CONCENTRATION WILL BE SAVED ON UNIT 1031 AT END OF TIME STEP   61, STRESS PERIOD    1


  MASS BUDGET FOR ENTIRE MODEL AT END OF TIME STEP   61, STRESS PERIOD   1
  ---------------------------------------------------------------------------------------------------

     CUMULATIVE MASS      M       RATES FOR THIS TIME STEP      M/T          PACKAGE NAME    
     ------------------                 ------------------------                     ----------------

           IN:                                      IN:
           ---                                      ---
     STORAGE-AQUEOUS =       1.0903E-11       STORAGE-AQUEOUS =       2.3474E-23     MST                              
                 WEL =           0.0000                   WEL =           0.0000     SSM_WEL1                         
                 WEL =       6.1000E-02                   WEL =       5.0000E-04     SSM_WEL2                         

            TOTAL IN =       6.1000E-02              TOTAL IN =       5.0000E-04

          OUT:                                     OUT:
          ----                                     ----
     STORAGE-AQUEOUS =       4.2472E-02       STORAGE-AQUEOUS =       2.0805E-04     MST                              
                 WEL =       1.8528E-02                   WEL =       2.9195E-04     SSM_WEL1                         
                 WEL =           0.0000                   WEL =           0.0000     SSM_WEL2                         

           TOTAL OUT =       6.1000E-02             TOTAL OUT =       5.0000E-04

            IN - OUT =      -1.5437E-07              IN - OUT =      -4.2037E-09

 PERCENT DISCREPANCY =          -0.00     PERCENT DISCREPANCY =          -0.00




         TIME SUMMARY AT END OF TIME STEP   61 IN STRESS PERIOD    1
                    SECONDS     MINUTES      HOURS       DAYS        YEARS
                    -----------------------------------------------------------
   TIME STEP LENGTH 1.72800E+05  2880.0      48.000      2.0000     5.47570E-03
 STRESS PERIOD TIME 1.05408E+07 1.75680E+05  2928.0      122.00     0.33402    
         TOTAL TIME 1.05408E+07 1.75680E+05  2928.0      122.00     0.33402    


end timestep


start timestep kper="1" kstp="62" mode="normal"

 UBDSV1 SAVING     FLOW-JA-FACE ON UNIT   1030 AT TIME STEP     62, STRESS PERIOD      1
 UBDSV1 SAVING  STORAGE-AQUEOUS ON UNIT   1030 AT TIME STEP     62, STRESS PERIOD      1
 UBDSV06 SAVING  SOURCE-SINK MIX IN MODEL SVA_TM_T         PACKAGE SVA_TM_T        CONNECTED TO MODEL SVA_TM_T         PACKAGE SSM              ON UNIT   1030 AT TIME STEP     62, STRESS PERIOD      1

 CONCENTRATION WILL BE SAVED ON UNIT 1031 AT END OF TIME STEP   62, STRESS PERIOD    1


  MASS BUDGET FOR ENTIRE MODEL AT END OF TIME STEP   62, STRESS PERIOD   1
  ---------------------------------------------------------------------------------------------------

     CUMULATIVE MASS      M       RATES FOR THIS TIME STEP      M/T          PACKAGE NAME    
     ------------------                 ------------------------                     ----------------

           IN:                                      IN:
           ---                                      ---
     STORAGE-AQUEOUS =       1.0903E-11       STORAGE-AQUEOUS =       1.9114E-23     MST                              
                 WEL =           0.0000                   WEL =           0.0000     SSM_WEL1                         
                 WEL =       6.2000E-02                   WEL =       5.0000E-04     SSM_WEL2                         

            TOTAL IN =       6.2000E-02              TOTAL IN =       5.0000E-04

          OUT:                                     OUT:
          ----                                     ----
     STORAGE-AQUEOUS =       4.2883E-02       STORAGE-AQUEOUS =       2.0539E-04     MST                              
                 WEL =       1.9118E-02                   WEL =       2.9461E-04     SSM_WEL1                         
                 WEL =           0.0000                   WEL =           0.0000     SSM_WEL2                         

           TOTAL OUT =       6.2000E-02             TOTAL OUT =       5.0000E-04

            IN - OUT =      -1.6221E-07              IN - OUT =      -3.9238E-09

 PERCENT DISCREPANCY =          -0.00     PERCENT DISCREPANCY =          -0.00




         TIME SUMMARY AT END OF TIME STEP   62 IN STRESS PERIOD    1
                    SECONDS     MINUTES      HOURS       DAYS        YEARS
                    -----------------------------------------------------------
   TIME STEP LENGTH 1.72800E+05  2880.0      48.000      2.0000     5.47570E-03
 STRESS PERIOD TIME 1.07136E+07 1.78560E+05  2976.0      124.00     0.33949    
         TOTAL TIME 1.07136E+07 1.78560E+05  2976.0      124.00     0.33949    


end timestep


start timestep kper="1" kstp="63" mode="normal"

 UBDSV1 SAVING     FLOW-JA-FACE ON UNIT   1030 AT TIME STEP     63, STRESS PERIOD      1
 UBDSV1 SAVING  STORAGE-AQUEOUS ON UNIT   1030 AT TIME STEP     63, STRESS PERIOD      1
 UBDSV06 SAVING  SOURCE-SINK MIX IN MODEL SVA_TM_T         PACKAGE SVA_TM_T        CONNECTED TO MODEL SVA_TM_T         PACKAGE SSM              ON UNIT   1030 AT TIME STEP     63, STRESS PERIOD      1

 CONCENTRATION WILL BE SAVED ON UNIT 1031 AT END OF TIME STEP   63, STRESS PERIOD    1


  MASS BUDGET FOR ENTIRE MODEL AT END OF TIME STEP   63, STRESS PERIOD   1
  ---------------------------------------------------------------------------------------------------

     CUMULATIVE MASS      M       RATES FOR THIS TIME STEP      M/T          PACKAGE NAME    
     ------------------                 ------------------------                     ----------------

           IN:                                      IN:
           ---                                      ---
     STORAGE-AQUEOUS =       1.0903E-11       STORAGE-AQUEOUS =       1.4943E-23     MST                              
                 WEL =           0.0000                   WEL =           0.0000     SSM_WEL1                         
                 WEL =       6.3000E-02                   WEL =       5.0000E-04     SSM_WEL2                         

            TOTAL IN =       6.3000E-02              TOTAL IN =       5.0000E-04

          OUT:                                     OUT:
          ----                                     ----
     STORAGE-AQUEOUS =       4.3288E-02       STORAGE-AQUEOUS =       2.0280E-04     MST                              
                 WEL =       1.9712E-02                   WEL =       2.9721E-04     SSM_WEL1                         
                 WEL =           0.0000                   WEL =           0.0000     SSM_WEL2                         

           TOTAL OUT =       6.3000E-02             TOTAL OUT =       5.0000E-04

            IN - OUT =      -1.7039E-07              IN - OUT =      -4.0890E-09

 PERCENT DISCREPANCY =          -0.00     PERCENT DISCREPANCY =          -0.00




         TIME SUMMARY AT END OF TIME STEP   63 IN STRESS PERIOD    1
                    SECONDS     MINUTES      HOURS       DAYS        YEARS
                    -----------------------------------------------------------
   TIME STEP LENGTH 1.72800E+05  2880.0      48.000      2.0000     5.47570E-03
 STRESS PERIOD TIME 1.08864E+07 1.81440E+05  3024.0      126.00     0.34497    
         TOTAL TIME 1.08864E+07 1.81440E+05  3024.0      126.00     0.34497    


end timestep


start timestep kper="1" kstp="64" mode="normal"

 UBDSV1 SAVING     FLOW-JA-FACE ON UNIT   1030 AT TIME STEP     64, STRESS PERIOD      1
 UBDSV1 SAVING  STORAGE-AQUEOUS ON UNIT   1030 AT TIME STEP     64, STRESS PERIOD      1
 UBDSV06 SAVING  SOURCE-SINK MIX IN MODEL SVA_TM_T         PACKAGE SVA_TM_T        CONNECTED TO MODEL SVA_TM_T         PACKAGE SSM              ON UNIT   1030 AT TIME STEP     64, STRESS PERIOD      1

 CONCENTRATION WILL BE SAVED ON UNIT 1031 AT END OF TIME STEP   64, STRESS PERIOD    1


  MASS BUDGET FOR ENTIRE MODEL AT END OF TIME STEP   64, STRESS PERIOD   1
  ---------------------------------------------------------------------------------------------------

     CUMULATIVE MASS      M       RATES FOR THIS TIME STEP      M/T          PACKAGE NAME    
     ------------------                 ------------------------                     ----------------

           IN:                                      IN:
           ---                                      ---
     STORAGE-AQUEOUS =       1.0903E-11       STORAGE-AQUEOUS =       1.3248E-23     MST                              
                 WEL =           0.0000                   WEL =           0.0000     SSM_WEL1                         
                 WEL =       6.4000E-02                   WEL =       5.0000E-04     SSM_WEL2                         

            TOTAL IN =       6.4000E-02              TOTAL IN =       5.0000E-04

          OUT:                                     OUT:
          ----                                     ----
     STORAGE-AQUEOUS =       4.3689E-02       STORAGE-AQUEOUS =       2.0026E-04     MST                              
                 WEL =       2.0312E-02                   WEL =       2.9974E-04     SSM_WEL1                         
                 WEL =           0.0000                   WEL =           0.0000     SSM_WEL2                         

           TOTAL OUT =       6.4000E-02             TOTAL OUT =       5.0000E-04

            IN - OUT =      -1.8000E-07              IN - OUT =      -4.8036E-09

 PERCENT DISCREPANCY =          -0.00     PERCENT DISCREPANCY =          -0.00




         TIME SUMMARY AT END OF TIME STEP   64 IN STRESS PERIOD    1
                    SECONDS     MINUTES      HOURS       DAYS        YEARS
                    -----------------------------------------------------------
   TIME STEP LENGTH 1.72800E+05  2880.0      48.000      2.0000     5.47570E-03
 STRESS PERIOD TIME 1.10592E+07 1.84320E+05  3072.0      128.00     0.35044    
         TOTAL TIME 1.10592E+07 1.84320E+05  3072.0      128.00     0.35044    


end timestep


start timestep kper="1" kstp="65" mode="normal"

 UBDSV1 SAVING     FLOW-JA-FACE ON UNIT   1030 AT TIME STEP     65, STRESS PERIOD      1
 UBDSV1 SAVING  STORAGE-AQUEOUS ON UNIT   1030 AT TIME STEP     65, STRESS PERIOD      1
 UBDSV06 SAVING  SOURCE-SINK MIX IN MODEL SVA_TM_T         PACKAGE SVA_TM_T        CONNECTED TO MODEL SVA_TM_T         PACKAGE SSM              ON UNIT   1030 AT TIME STEP     65, STRESS PERIOD      1

 CONCENTRATION WILL BE SAVED ON UNIT 1031 AT END OF TIME STEP   65, STRESS PERIOD    1


  MASS BUDGET FOR ENTIRE MODEL AT END OF TIME STEP   65, STRESS PERIOD   1
  ---------------------------------------------------------------------------------------------------

     CUMULATIVE MASS      M       RATES FOR THIS TIME STEP      M/T          PACKAGE NAME    
     ------------------                 ------------------------                     ----------------

           IN:                                      IN:
           ---                                      ---
     STORAGE-AQUEOUS =       1.0903E-11       STORAGE-AQUEOUS =       1.1131E-23     MST                              
                 WEL =           0.0000                   WEL =           0.0000     SSM_WEL1                         
                 WEL =       6.5000E-02                   WEL =       5.0000E-04     SSM_WEL2                         

            TOTAL IN =       6.5000E-02              TOTAL IN =       5.0000E-04

          OUT:                                     OUT:
          ----                                     ----
     STORAGE-AQUEOUS =       4.4084E-02       STORAGE-AQUEOUS =       1.9779E-04     MST                              
                 WEL =       2.0916E-02                   WEL =       3.0221E-04     SSM_WEL1                         
                 WEL =           0.0000                   WEL =           0.0000     SSM_WEL2                         

           TOTAL OUT =       6.5000E-02             TOTAL OUT =       5.0000E-04

            IN - OUT =      -1.8538E-07              IN - OUT =      -2.6894E-09

 PERCENT DISCREPANCY =          -0.00     PERCENT DISCREPANCY =          -0.00




         TIME SUMMARY AT END OF TIME STEP   65 IN STRESS PERIOD    1
                    SECONDS     MINUTES      HOURS       DAYS        YEARS
                    -----------------------------------------------------------
   TIME STEP LENGTH 1.72800E+05  2880.0      48.000      2.0000     5.47570E-03
 STRESS PERIOD TIME 1.12320E+07 1.87200E+05  3120.0      130.00     0.35592    
         TOTAL TIME 1.12320E+07 1.87200E+05  3120.0      130.00     0.35592    


end timestep


start timestep kper="1" kstp="66" mode="normal"

 UBDSV1 SAVING     FLOW-JA-FACE ON UNIT   1030 AT TIME STEP     66, STRESS PERIOD      1
 UBDSV1 SAVING  STORAGE-AQUEOUS ON UNIT   1030 AT TIME STEP     66, STRESS PERIOD      1
 UBDSV06 SAVING  SOURCE-SINK MIX IN MODEL SVA_TM_T         PACKAGE SVA_TM_T        CONNECTED TO MODEL SVA_TM_T         PACKAGE SSM              ON UNIT   1030 AT TIME STEP     66, STRESS PERIOD      1

 CONCENTRATION WILL BE SAVED ON UNIT 1031 AT END OF TIME STEP   66, STRESS PERIOD    1


  MASS BUDGET FOR ENTIRE MODEL AT END OF TIME STEP   66, STRESS PERIOD   1
  ---------------------------------------------------------------------------------------------------

     CUMULATIVE MASS      M       RATES FOR THIS TIME STEP      M/T          PACKAGE NAME    
     ------------------                 ------------------------                     ----------------

           IN:                                      IN:
           ---                                      ---
     STORAGE-AQUEOUS =       1.0903E-11       STORAGE-AQUEOUS =       8.4054E-24     MST                              
                 WEL =           0.0000                   WEL =           0.0000     SSM_WEL1                         
                 WEL =       6.6000E-02                   WEL =       5.0000E-04     SSM_WEL2                         

            TOTAL IN =       6.6000E-02              TOTAL IN =       5.0000E-04

          OUT:                                     OUT:
          ----                                     ----
     STORAGE-AQUEOUS =       4.4475E-02       STORAGE-AQUEOUS =       1.9539E-04     MST                              
                 WEL =       2.1525E-02                   WEL =       3.0462E-04     SSM_WEL1                         
                 WEL =           0.0000                   WEL =           0.0000     SSM_WEL2                         

           TOTAL OUT =       6.6000E-02             TOTAL OUT =       5.0000E-04

            IN - OUT =      -1.9134E-07              IN - OUT =      -2.9811E-09

 PERCENT DISCREPANCY =          -0.00     PERCENT DISCREPANCY =          -0.00




         TIME SUMMARY AT END OF TIME STEP   66 IN STRESS PERIOD    1
                    SECONDS     MINUTES      HOURS       DAYS        YEARS
                    -----------------------------------------------------------
   TIME STEP LENGTH 1.72800E+05  2880.0      48.000      2.0000     5.47570E-03
 STRESS PERIOD TIME 1.14048E+07 1.90080E+05  3168.0      132.00     0.36140    
         TOTAL TIME 1.14048E+07 1.90080E+05  3168.0      132.00     0.36140    


end timestep


start timestep kper="1" kstp="67" mode="normal"

 UBDSV1 SAVING     FLOW-JA-FACE ON UNIT   1030 AT TIME STEP     67, STRESS PERIOD      1
 UBDSV1 SAVING  STORAGE-AQUEOUS ON UNIT   1030 AT TIME STEP     67, STRESS PERIOD      1
 UBDSV06 SAVING  SOURCE-SINK MIX IN MODEL SVA_TM_T         PACKAGE SVA_TM_T        CONNECTED TO MODEL SVA_TM_T         PACKAGE SSM              ON UNIT   1030 AT TIME STEP     67, STRESS PERIOD      1

 CONCENTRATION WILL BE SAVED ON UNIT 1031 AT END OF TIME STEP   67, STRESS PERIOD    1


  MASS BUDGET FOR ENTIRE MODEL AT END OF TIME STEP   67, STRESS PERIOD   1
  ---------------------------------------------------------------------------------------------------

     CUMULATIVE MASS      M       RATES FOR THIS TIME STEP      M/T          PACKAGE NAME    
     ------------------                 ------------------------                     ----------------

           IN:                                      IN:
           ---                                      ---
     STORAGE-AQUEOUS =       1.0903E-11       STORAGE-AQUEOUS =       7.2055E-24     MST                              
                 WEL =           0.0000                   WEL =           0.0000     SSM_WEL1                         
                 WEL =       6.7000E-02                   WEL =       5.0000E-04     SSM_WEL2                         

            TOTAL IN =       6.7000E-02              TOTAL IN =       5.0000E-04

          OUT:                                     OUT:
          ----                                     ----
     STORAGE-AQUEOUS =       4.4861E-02       STORAGE-AQUEOUS =       1.9304E-04     MST                              
                 WEL =       2.2139E-02                   WEL =       3.0696E-04     SSM_WEL1                         
                 WEL =           0.0000                   WEL =           0.0000     SSM_WEL2                         

           TOTAL OUT =       6.7000E-02             TOTAL OUT =       5.0000E-04

            IN - OUT =      -1.9693E-07              IN - OUT =      -2.7933E-09

 PERCENT DISCREPANCY =          -0.00     PERCENT DISCREPANCY =          -0.00




         TIME SUMMARY AT END OF TIME STEP   67 IN STRESS PERIOD    1
                    SECONDS     MINUTES      HOURS       DAYS        YEARS
                    -----------------------------------------------------------
   TIME STEP LENGTH 1.72800E+05  2880.0      48.000      2.0000     5.47570E-03
 STRESS PERIOD TIME 1.15776E+07 1.92960E+05  3216.0      134.00     0.36687    
         TOTAL TIME 1.15776E+07 1.92960E+05  3216.0      134.00     0.36687    


end timestep


start timestep kper="1" kstp="68" mode="normal"

 UBDSV1 SAVING     FLOW-JA-FACE ON UNIT   1030 AT TIME STEP     68, STRESS PERIOD      1
 UBDSV1 SAVING  STORAGE-AQUEOUS ON UNIT   1030 AT TIME STEP     68, STRESS PERIOD      1
 UBDSV06 SAVING  SOURCE-SINK MIX IN MODEL SVA_TM_T         PACKAGE SVA_TM_T        CONNECTED TO MODEL SVA_TM_T         PACKAGE SSM              ON UNIT   1030 AT TIME STEP     68, STRESS PERIOD      1

 CONCENTRATION WILL BE SAVED ON UNIT 1031 AT END OF TIME STEP   68, STRESS PERIOD    1


  MASS BUDGET FOR ENTIRE MODEL AT END OF TIME STEP   68, STRESS PERIOD   1
  ---------------------------------------------------------------------------------------------------

     CUMULATIVE MASS      M       RATES FOR THIS TIME STEP      M/T          PACKAGE NAME    
     ------------------                 ------------------------                     ----------------

           IN:                                      IN:
           ---                                      ---
     STORAGE-AQUEOUS =       1.0903E-11       STORAGE-AQUEOUS =       6.3251E-24     MST                              
                 WEL =           0.0000                   WEL =           0.0000     SSM_WEL1                         
                 WEL =       6.8000E-02                   WEL =       5.0000E-04     SSM_WEL2                         

            TOTAL IN =       6.8000E-02              TOTAL IN =       5.0000E-04

          OUT:                                     OUT:
          ----                                     ----
     STORAGE-AQUEOUS =       4.5243E-02       STORAGE-AQUEOUS =       1.9076E-04     MST                              
                 WEL =       2.2758E-02                   WEL =       3.0924E-04     SSM_WEL1                         
                 WEL =           0.0000                   WEL =           0.0000     SSM_WEL2                         

           TOTAL OUT =       6.8000E-02             TOTAL OUT =       5.0001E-04

            IN - OUT =      -2.0803E-07              IN - OUT =      -5.5544E-09

 PERCENT DISCREPANCY =          -0.00     PERCENT DISCREPANCY =          -0.00




         TIME SUMMARY AT END OF TIME STEP   68 IN STRESS PERIOD    1
                    SECONDS     MINUTES      HOURS       DAYS        YEARS
                    -----------------------------------------------------------
   TIME STEP LENGTH 1.72800E+05  2880.0      48.000      2.0000     5.47570E-03
 STRESS PERIOD TIME 1.17504E+07 1.95840E+05  3264.0      136.00     0.37235    
         TOTAL TIME 1.17504E+07 1.95840E+05  3264.0      136.00     0.37235    


end timestep


start timestep kper="1" kstp="69" mode="normal"

 UBDSV1 SAVING     FLOW-JA-FACE ON UNIT   1030 AT TIME STEP     69, STRESS PERIOD      1
 UBDSV1 SAVING  STORAGE-AQUEOUS ON UNIT   1030 AT TIME STEP     69, STRESS PERIOD      1
 UBDSV06 SAVING  SOURCE-SINK MIX IN MODEL SVA_TM_T         PACKAGE SVA_TM_T        CONNECTED TO MODEL SVA_TM_T         PACKAGE SSM              ON UNIT   1030 AT TIME STEP     69, STRESS PERIOD      1

 CONCENTRATION WILL BE SAVED ON UNIT 1031 AT END OF TIME STEP   69, STRESS PERIOD    1


  MASS BUDGET FOR ENTIRE MODEL AT END OF TIME STEP   69, STRESS PERIOD   1
  ---------------------------------------------------------------------------------------------------

     CUMULATIVE MASS      M       RATES FOR THIS TIME STEP      M/T          PACKAGE NAME    
     ------------------                 ------------------------                     ----------------

           IN:                                      IN:
           ---                                      ---
     STORAGE-AQUEOUS =       1.0903E-11       STORAGE-AQUEOUS =       5.0200E-24     MST                              
                 WEL =           0.0000                   WEL =           0.0000     SSM_WEL1                         
                 WEL =       6.9000E-02                   WEL =       5.0000E-04     SSM_WEL2                         

            TOTAL IN =       6.9000E-02              TOTAL IN =       5.0000E-04

          OUT:                                     OUT:
          ----                                     ----
     STORAGE-AQUEOUS =       4.5620E-02       STORAGE-AQUEOUS =       1.8854E-04     MST                              
                 WEL =       2.3381E-02                   WEL =       3.1147E-04     SSM_WEL1                         
                 WEL =           0.0000                   WEL =           0.0000     SSM_WEL2                         

           TOTAL OUT =       6.9000E-02             TOTAL OUT =       5.0001E-04

            IN - OUT =      -2.2410E-07              IN - OUT =      -8.0307E-09

 PERCENT DISCREPANCY =          -0.00     PERCENT DISCREPANCY =          -0.00




         TIME SUMMARY AT END OF TIME STEP   69 IN STRESS PERIOD    1
                    SECONDS     MINUTES      HOURS       DAYS        YEARS
                    -----------------------------------------------------------
   TIME STEP LENGTH 1.72800E+05  2880.0      48.000      2.0000     5.47570E-03
 STRESS PERIOD TIME 1.19232E+07 1.98720E+05  3312.0      138.00     0.37782    
         TOTAL TIME 1.19232E+07 1.98720E+05  3312.0      138.00     0.37782    


end timestep


start timestep kper="1" kstp="70" mode="normal"

 UBDSV1 SAVING     FLOW-JA-FACE ON UNIT   1030 AT TIME STEP     70, STRESS PERIOD      1
 UBDSV1 SAVING  STORAGE-AQUEOUS ON UNIT   1030 AT TIME STEP     70, STRESS PERIOD      1
 UBDSV06 SAVING  SOURCE-SINK MIX IN MODEL SVA_TM_T         PACKAGE SVA_TM_T        CONNECTED TO MODEL SVA_TM_T         PACKAGE SSM              ON UNIT   1030 AT TIME STEP     70, STRESS PERIOD      1

 CONCENTRATION WILL BE SAVED ON UNIT 1031 AT END OF TIME STEP   70, STRESS PERIOD    1


  MASS BUDGET FOR ENTIRE MODEL AT END OF TIME STEP   70, STRESS PERIOD   1
  ---------------------------------------------------------------------------------------------------

     CUMULATIVE MASS      M       RATES FOR THIS TIME STEP      M/T          PACKAGE NAME    
     ------------------                 ------------------------                     ----------------

           IN:                                      IN:
           ---                                      ---
     STORAGE-AQUEOUS =       1.0903E-11       STORAGE-AQUEOUS =       3.9441E-24     MST                              
                 WEL =           0.0000                   WEL =           0.0000     SSM_WEL1                         
                 WEL =       7.0000E-02                   WEL =       5.0000E-04     SSM_WEL2                         

            TOTAL IN =       7.0000E-02              TOTAL IN =       5.0000E-04

          OUT:                                     OUT:
          ----                                     ----
     STORAGE-AQUEOUS =       4.5992E-02       STORAGE-AQUEOUS =       1.8635E-04     MST                              
                 WEL =       2.4008E-02                   WEL =       3.1365E-04     SSM_WEL1                         
                 WEL =           0.0000                   WEL =           0.0000     SSM_WEL2                         

           TOTAL OUT =       7.0000E-02             TOTAL OUT =       5.0000E-04

            IN - OUT =      -2.3251E-07              IN - OUT =      -4.2093E-09

 PERCENT DISCREPANCY =          -0.00     PERCENT DISCREPANCY =          -0.00




         TIME SUMMARY AT END OF TIME STEP   70 IN STRESS PERIOD    1
                    SECONDS     MINUTES      HOURS       DAYS        YEARS
                    -----------------------------------------------------------
   TIME STEP LENGTH 1.72800E+05  2880.0      48.000      2.0000     5.47570E-03
 STRESS PERIOD TIME 1.20960E+07 2.01600E+05  3360.0      140.00     0.38330    
         TOTAL TIME 1.20960E+07 2.01600E+05  3360.0      140.00     0.38330    


end timestep


start timestep kper="1" kstp="71" mode="normal"

 UBDSV1 SAVING     FLOW-JA-FACE ON UNIT   1030 AT TIME STEP     71, STRESS PERIOD      1
 UBDSV1 SAVING  STORAGE-AQUEOUS ON UNIT   1030 AT TIME STEP     71, STRESS PERIOD      1
 UBDSV06 SAVING  SOURCE-SINK MIX IN MODEL SVA_TM_T         PACKAGE SVA_TM_T        CONNECTED TO MODEL SVA_TM_T         PACKAGE SSM              ON UNIT   1030 AT TIME STEP     71, STRESS PERIOD      1

 CONCENTRATION WILL BE SAVED ON UNIT 1031 AT END OF TIME STEP   71, STRESS PERIOD    1


  MASS BUDGET FOR ENTIRE MODEL AT END OF TIME STEP   71, STRESS PERIOD   1
  ---------------------------------------------------------------------------------------------------

     CUMULATIVE MASS      M       RATES FOR THIS TIME STEP      M/T          PACKAGE NAME    
     ------------------                 ------------------------                     ----------------

           IN:                                      IN:
           ---                                      ---
     STORAGE-AQUEOUS =       1.0903E-11       STORAGE-AQUEOUS =       3.4620E-24     MST                              
                 WEL =           0.0000                   WEL =           0.0000     SSM_WEL1                         
                 WEL =       7.1000E-02                   WEL =       5.0000E-04     SSM_WEL2                         

            TOTAL IN =       7.1000E-02              TOTAL IN =       5.0000E-04

          OUT:                                     OUT:
          ----                                     ----
     STORAGE-AQUEOUS =       4.6361E-02       STORAGE-AQUEOUS =       1.8422E-04     MST                              
                 WEL =       2.4639E-02                   WEL =       3.1578E-04     SSM_WEL1                         
                 WEL =           0.0000                   WEL =           0.0000     SSM_WEL2                         

           TOTAL OUT =       7.1000E-02             TOTAL OUT =       5.0001E-04

            IN - OUT =      -2.4408E-07              IN - OUT =      -5.7808E-09

 PERCENT DISCREPANCY =          -0.00     PERCENT DISCREPANCY =          -0.00




         TIME SUMMARY AT END OF TIME STEP   71 IN STRESS PERIOD    1
                    SECONDS     MINUTES      HOURS       DAYS        YEARS
                    -----------------------------------------------------------
   TIME STEP LENGTH 1.72800E+05  2880.0      48.000      2.0000     5.47570E-03
 STRESS PERIOD TIME 1.22688E+07 2.04480E+05  3408.0      142.00     0.38877    
         TOTAL TIME 1.22688E+07 2.04480E+05  3408.0      142.00     0.38877    


end timestep


start timestep kper="1" kstp="72" mode="normal"

 UBDSV1 SAVING     FLOW-JA-FACE ON UNIT   1030 AT TIME STEP     72, STRESS PERIOD      1
 UBDSV1 SAVING  STORAGE-AQUEOUS ON UNIT   1030 AT TIME STEP     72, STRESS PERIOD      1
 UBDSV06 SAVING  SOURCE-SINK MIX IN MODEL SVA_TM_T         PACKAGE SVA_TM_T        CONNECTED TO MODEL SVA_TM_T         PACKAGE SSM              ON UNIT   1030 AT TIME STEP     72, STRESS PERIOD      1

 CONCENTRATION WILL BE SAVED ON UNIT 1031 AT END OF TIME STEP   72, STRESS PERIOD    1


  MASS BUDGET FOR ENTIRE MODEL AT END OF TIME STEP   72, STRESS PERIOD   1
  ---------------------------------------------------------------------------------------------------

     CUMULATIVE MASS      M       RATES FOR THIS TIME STEP      M/T          PACKAGE NAME    
     ------------------                 ------------------------                     ----------------

           IN:                                      IN:
           ---                                      ---
     STORAGE-AQUEOUS =       1.0903E-11       STORAGE-AQUEOUS =       2.8987E-24     MST                              
                 WEL =           0.0000                   WEL =           0.0000     SSM_WEL1                         
                 WEL =       7.2000E-02                   WEL =       5.0000E-04     SSM_WEL2                         

            TOTAL IN =       7.2000E-02              TOTAL IN =       5.0000E-04

          OUT:                                     OUT:
          ----                                     ----
     STORAGE-AQUEOUS =       4.6725E-02       STORAGE-AQUEOUS =       1.8214E-04     MST                              
                 WEL =       2.5275E-02                   WEL =       3.1786E-04     SSM_WEL1                         
                 WEL =           0.0000                   WEL =           0.0000     SSM_WEL2                         

           TOTAL OUT =       7.2000E-02             TOTAL OUT =       5.0000E-04

            IN - OUT =      -2.5157E-07              IN - OUT =      -3.7444E-09

 PERCENT DISCREPANCY =          -0.00     PERCENT DISCREPANCY =          -0.00




         TIME SUMMARY AT END OF TIME STEP   72 IN STRESS PERIOD    1
                    SECONDS     MINUTES      HOURS       DAYS        YEARS
                    -----------------------------------------------------------
   TIME STEP LENGTH 1.72800E+05  2880.0      48.000      2.0000     5.47570E-03
 STRESS PERIOD TIME 1.24416E+07 2.07360E+05  3456.0      144.00     0.39425    
         TOTAL TIME 1.24416E+07 2.07360E+05  3456.0      144.00     0.39425    


end timestep


start timestep kper="1" kstp="73" mode="normal"

 UBDSV1 SAVING     FLOW-JA-FACE ON UNIT   1030 AT TIME STEP     73, STRESS PERIOD      1
 UBDSV1 SAVING  STORAGE-AQUEOUS ON UNIT   1030 AT TIME STEP     73, STRESS PERIOD      1
 UBDSV06 SAVING  SOURCE-SINK MIX IN MODEL SVA_TM_T         PACKAGE SVA_TM_T        CONNECTED TO MODEL SVA_TM_T         PACKAGE SSM              ON UNIT   1030 AT TIME STEP     73, STRESS PERIOD      1

 CONCENTRATION WILL BE SAVED ON UNIT 1031 AT END OF TIME STEP   73, STRESS PERIOD    1


  MASS BUDGET FOR ENTIRE MODEL AT END OF TIME STEP   73, STRESS PERIOD   1
  ---------------------------------------------------------------------------------------------------

     CUMULATIVE MASS      M       RATES FOR THIS TIME STEP      M/T          PACKAGE NAME    
     ------------------                 ------------------------                     ----------------

           IN:                                      IN:
           ---                                      ---
     STORAGE-AQUEOUS =       1.0903E-11       STORAGE-AQUEOUS =       2.1772E-24     MST                              
                 WEL =           0.0000                   WEL =           0.0000     SSM_WEL1                         
                 WEL =       7.3000E-02                   WEL =       5.0000E-04     SSM_WEL2                         

            TOTAL IN =       7.3000E-02              TOTAL IN =       5.0000E-04

          OUT:                                     OUT:
          ----                                     ----
     STORAGE-AQUEOUS =       4.7085E-02       STORAGE-AQUEOUS =       1.8010E-04     MST                              
                 WEL =       2.5915E-02                   WEL =       3.1990E-04     SSM_WEL1                         
                 WEL =           0.0000                   WEL =           0.0000     SSM_WEL2                         

           TOTAL OUT =       7.3000E-02             TOTAL OUT =       5.0000E-04

            IN - OUT =      -2.5678E-07              IN - OUT =      -2.6062E-09

 PERCENT DISCREPANCY =          -0.00     PERCENT DISCREPANCY =          -0.00




         TIME SUMMARY AT END OF TIME STEP   73 IN STRESS PERIOD    1
                    SECONDS     MINUTES      HOURS       DAYS        YEARS
                    -----------------------------------------------------------
   TIME STEP LENGTH 1.72800E+05  2880.0      48.000      2.0000     5.47570E-03
 STRESS PERIOD TIME 1.26144E+07 2.10240E+05  3504.0      146.00     0.39973    
         TOTAL TIME 1.26144E+07 2.10240E+05  3504.0      146.00     0.39973    


end timestep


start timestep kper="1" kstp="74" mode="normal"

 UBDSV1 SAVING     FLOW-JA-FACE ON UNIT   1030 AT TIME STEP     74, STRESS PERIOD      1
 UBDSV1 SAVING  STORAGE-AQUEOUS ON UNIT   1030 AT TIME STEP     74, STRESS PERIOD      1
 UBDSV06 SAVING  SOURCE-SINK MIX IN MODEL SVA_TM_T         PACKAGE SVA_TM_T        CONNECTED TO MODEL SVA_TM_T         PACKAGE SSM              ON UNIT   1030 AT TIME STEP     74, STRESS PERIOD      1

 CONCENTRATION WILL BE SAVED ON UNIT 1031 AT END OF TIME STEP   74, STRESS PERIOD    1


  MASS BUDGET FOR ENTIRE MODEL AT END OF TIME STEP   74, STRESS PERIOD   1
  ---------------------------------------------------------------------------------------------------

     CUMULATIVE MASS      M       RATES FOR THIS TIME STEP      M/T          PACKAGE NAME    
     ------------------                 ------------------------                     ----------------

           IN:                                      IN:
           ---                                      ---
     STORAGE-AQUEOUS =       1.0903E-11       STORAGE-AQUEOUS =       1.8891E-24     MST                              
                 WEL =           0.0000                   WEL =           0.0000     SSM_WEL1                         
                 WEL =       7.4000E-02                   WEL =       5.0000E-04     SSM_WEL2                         

            TOTAL IN =       7.4000E-02              TOTAL IN =       5.0000E-04

          OUT:                                     OUT:
          ----                                     ----
     STORAGE-AQUEOUS =       4.7442E-02       STORAGE-AQUEOUS =       1.7811E-04     MST                              
                 WEL =       2.6559E-02                   WEL =       3.2189E-04     SSM_WEL1                         
                 WEL =           0.0000                   WEL =           0.0000     SSM_WEL2                         

           TOTAL OUT =       7.4000E-02             TOTAL OUT =       5.0000E-04

            IN - OUT =      -2.6112E-07              IN - OUT =      -2.1719E-09

 PERCENT DISCREPANCY =          -0.00     PERCENT DISCREPANCY =          -0.00




         TIME SUMMARY AT END OF TIME STEP   74 IN STRESS PERIOD    1
                    SECONDS     MINUTES      HOURS       DAYS        YEARS
                    -----------------------------------------------------------
   TIME STEP LENGTH 1.72800E+05  2880.0      48.000      2.0000     5.47570E-03
 STRESS PERIOD TIME 1.27872E+07 2.13120E+05  3552.0      148.00     0.40520    
         TOTAL TIME 1.27872E+07 2.13120E+05  3552.0      148.00     0.40520    


end timestep


start timestep kper="1" kstp="75" mode="normal"

 UBDSV1 SAVING     FLOW-JA-FACE ON UNIT   1030 AT TIME STEP     75, STRESS PERIOD      1
 UBDSV1 SAVING  STORAGE-AQUEOUS ON UNIT   1030 AT TIME STEP     75, STRESS PERIOD      1
 UBDSV06 SAVING  SOURCE-SINK MIX IN MODEL SVA_TM_T         PACKAGE SVA_TM_T        CONNECTED TO MODEL SVA_TM_T         PACKAGE SSM              ON UNIT   1030 AT TIME STEP     75, STRESS PERIOD      1

 CONCENTRATION WILL BE SAVED ON UNIT 1031 AT END OF TIME STEP   75, STRESS PERIOD    1


  MASS BUDGET FOR ENTIRE MODEL AT END OF TIME STEP   75, STRESS PERIOD   1
  ---------------------------------------------------------------------------------------------------

     CUMULATIVE MASS      M       RATES FOR THIS TIME STEP      M/T          PACKAGE NAME    
     ------------------                 ------------------------                     ----------------

           IN:                                      IN:
           ---                                      ---
     STORAGE-AQUEOUS =       1.0903E-11       STORAGE-AQUEOUS =       1.6121E-24     MST                              
                 WEL =           0.0000                   WEL =           0.0000     SSM_WEL1                         
                 WEL =       7.5000E-02                   WEL =       5.0000E-04     SSM_WEL2                         

            TOTAL IN =       7.5000E-02              TOTAL IN =       5.0000E-04

          OUT:                                     OUT:
          ----                                     ----
     STORAGE-AQUEOUS =       4.7794E-02       STORAGE-AQUEOUS =       1.7617E-04     MST                              
                 WEL =       2.7206E-02                   WEL =       3.2383E-04     SSM_WEL1                         
                 WEL =           0.0000                   WEL =           0.0000     SSM_WEL2                         

           TOTAL OUT =       7.5000E-02             TOTAL OUT =       5.0000E-04

            IN - OUT =      -2.6522E-07              IN - OUT =      -2.0495E-09

 PERCENT DISCREPANCY =          -0.00     PERCENT DISCREPANCY =          -0.00




         TIME SUMMARY AT END OF TIME STEP   75 IN STRESS PERIOD    1
                    SECONDS     MINUTES      HOURS       DAYS        YEARS
                    -----------------------------------------------------------
   TIME STEP LENGTH 1.72800E+05  2880.0      48.000      2.0000     5.47570E-03
 STRESS PERIOD TIME 1.29600E+07 2.16000E+05  3600.0      150.00     0.41068    
         TOTAL TIME 1.29600E+07 2.16000E+05  3600.0      150.00     0.41068    


end timestep


start timestep kper="1" kstp="76" mode="normal"

 UBDSV1 SAVING     FLOW-JA-FACE ON UNIT   1030 AT TIME STEP     76, STRESS PERIOD      1
 UBDSV1 SAVING  STORAGE-AQUEOUS ON UNIT   1030 AT TIME STEP     76, STRESS PERIOD      1
 UBDSV06 SAVING  SOURCE-SINK MIX IN MODEL SVA_TM_T         PACKAGE SVA_TM_T        CONNECTED TO MODEL SVA_TM_T         PACKAGE SSM              ON UNIT   1030 AT TIME STEP     76, STRESS PERIOD      1

 CONCENTRATION WILL BE SAVED ON UNIT 1031 AT END OF TIME STEP   76, STRESS PERIOD    1


  MASS BUDGET FOR ENTIRE MODEL AT END OF TIME STEP   76, STRESS PERIOD   1
  ---------------------------------------------------------------------------------------------------

     CUMULATIVE MASS      M       RATES FOR THIS TIME STEP      M/T          PACKAGE NAME    
     ------------------                 ------------------------                     ----------------

           IN:                                      IN:
           ---                                      ---
     STORAGE-AQUEOUS =       1.0903E-11       STORAGE-AQUEOUS =       1.2591E-24     MST                              
                 WEL =           0.0000                   WEL =           0.0000     SSM_WEL1                         
                 WEL =       7.6000E-02                   WEL =       5.0000E-04     SSM_WEL2                         

            TOTAL IN =       7.6000E-02              TOTAL IN =       5.0000E-04

          OUT:                                     OUT:
          ----                                     ----
     STORAGE-AQUEOUS =       4.8142E-02       STORAGE-AQUEOUS =       1.7427E-04     MST                              
                 WEL =       2.7858E-02                   WEL =       3.2574E-04     SSM_WEL1                         
                 WEL =           0.0000                   WEL =           0.0000     SSM_WEL2                         

           TOTAL OUT =       7.6000E-02             TOTAL OUT =       5.0000E-04

            IN - OUT =      -2.6926E-07              IN - OUT =      -2.0201E-09

 PERCENT DISCREPANCY =          -0.00     PERCENT DISCREPANCY =          -0.00




         TIME SUMMARY AT END OF TIME STEP   76 IN STRESS PERIOD    1
                    SECONDS     MINUTES      HOURS       DAYS        YEARS
                    -----------------------------------------------------------
   TIME STEP LENGTH 1.72800E+05  2880.0      48.000      2.0000     5.47570E-03
 STRESS PERIOD TIME 1.31328E+07 2.18880E+05  3648.0      152.00     0.41615    
         TOTAL TIME 1.31328E+07 2.18880E+05  3648.0      152.00     0.41615    


end timestep


start timestep kper="1" kstp="77" mode="normal"

 UBDSV1 SAVING     FLOW-JA-FACE ON UNIT   1030 AT TIME STEP     77, STRESS PERIOD      1
 UBDSV1 SAVING  STORAGE-AQUEOUS ON UNIT   1030 AT TIME STEP     77, STRESS PERIOD      1
 UBDSV06 SAVING  SOURCE-SINK MIX IN MODEL SVA_TM_T         PACKAGE SVA_TM_T        CONNECTED TO MODEL SVA_TM_T         PACKAGE SSM              ON UNIT   1030 AT TIME STEP     77, STRESS PERIOD      1

 CONCENTRATION WILL BE SAVED ON UNIT 1031 AT END OF TIME STEP   77, STRESS PERIOD    1


  MASS BUDGET FOR ENTIRE MODEL AT END OF TIME STEP   77, STRESS PERIOD   1
  ---------------------------------------------------------------------------------------------------

     CUMULATIVE MASS      M       RATES FOR THIS TIME STEP      M/T          PACKAGE NAME    
     ------------------                 ------------------------                     ----------------

           IN:                                      IN:
           ---                                      ---
     STORAGE-AQUEOUS =       1.0903E-11       STORAGE-AQUEOUS =       1.0124E-24     MST                              
                 WEL =           0.0000                   WEL =           0.0000     SSM_WEL1                         
                 WEL =       7.7000E-02                   WEL =       5.0000E-04     SSM_WEL2                         

            TOTAL IN =       7.7000E-02              TOTAL IN =       5.0000E-04

          OUT:                                     OUT:
          ----                                     ----
     STORAGE-AQUEOUS =       4.8487E-02       STORAGE-AQUEOUS =       1.7241E-04     MST                              
                 WEL =       2.8513E-02                   WEL =       3.2760E-04     SSM_WEL1                         
                 WEL =           0.0000                   WEL =           0.0000     SSM_WEL2                         

           TOTAL OUT =       7.7000E-02             TOTAL OUT =       5.0000E-04

            IN - OUT =      -2.7340E-07              IN - OUT =      -2.0709E-09

 PERCENT DISCREPANCY =          -0.00     PERCENT DISCREPANCY =          -0.00




         TIME SUMMARY AT END OF TIME STEP   77 IN STRESS PERIOD    1
                    SECONDS     MINUTES      HOURS       DAYS        YEARS
                    -----------------------------------------------------------
   TIME STEP LENGTH 1.72800E+05  2880.0      48.000      2.0000     5.47570E-03
 STRESS PERIOD TIME 1.33056E+07 2.21760E+05  3696.0      154.00     0.42163    
         TOTAL TIME 1.33056E+07 2.21760E+05  3696.0      154.00     0.42163    


end timestep


start timestep kper="1" kstp="78" mode="normal"

 UBDSV1 SAVING     FLOW-JA-FACE ON UNIT   1030 AT TIME STEP     78, STRESS PERIOD      1
 UBDSV1 SAVING  STORAGE-AQUEOUS ON UNIT   1030 AT TIME STEP     78, STRESS PERIOD      1
 UBDSV06 SAVING  SOURCE-SINK MIX IN MODEL SVA_TM_T         PACKAGE SVA_TM_T        CONNECTED TO MODEL SVA_TM_T         PACKAGE SSM              ON UNIT   1030 AT TIME STEP     78, STRESS PERIOD      1

 CONCENTRATION WILL BE SAVED ON UNIT 1031 AT END OF TIME STEP   78, STRESS PERIOD    1


  MASS BUDGET FOR ENTIRE MODEL AT END OF TIME STEP   78, STRESS PERIOD   1
  ---------------------------------------------------------------------------------------------------

     CUMULATIVE MASS      M       RATES FOR THIS TIME STEP      M/T          PACKAGE NAME    
     ------------------                 ------------------------                     ----------------

           IN:                                      IN:
           ---                                      ---
     STORAGE-AQUEOUS =       1.0903E-11       STORAGE-AQUEOUS =       8.8495E-25     MST                              
                 WEL =           0.0000                   WEL =           0.0000     SSM_WEL1                         
                 WEL =       7.8000E-02                   WEL =       5.0000E-04     SSM_WEL2                         

            TOTAL IN =       7.8000E-02              TOTAL IN =       5.0000E-04

          OUT:                                     OUT:
          ----                                     ----
     STORAGE-AQUEOUS =       4.8828E-02       STORAGE-AQUEOUS =       1.7060E-04     MST                              
                 WEL =       2.9172E-02                   WEL =       3.2941E-04     SSM_WEL1                         
                 WEL =           0.0000                   WEL =           0.0000     SSM_WEL2                         

           TOTAL OUT =       7.8000E-02             TOTAL OUT =       5.0000E-04

            IN - OUT =      -2.7749E-07              IN - OUT =      -2.0435E-09

 PERCENT DISCREPANCY =          -0.00     PERCENT DISCREPANCY =          -0.00




         TIME SUMMARY AT END OF TIME STEP   78 IN STRESS PERIOD    1
                    SECONDS     MINUTES      HOURS       DAYS        YEARS
                    -----------------------------------------------------------
   TIME STEP LENGTH 1.72800E+05  2880.0      48.000      2.0000     5.47570E-03
 STRESS PERIOD TIME 1.34784E+07 2.24640E+05  3744.0      156.00     0.42710    
         TOTAL TIME 1.34784E+07 2.24640E+05  3744.0      156.00     0.42710    


end timestep


start timestep kper="1" kstp="79" mode="normal"

 UBDSV1 SAVING     FLOW-JA-FACE ON UNIT   1030 AT TIME STEP     79, STRESS PERIOD      1
 UBDSV1 SAVING  STORAGE-AQUEOUS ON UNIT   1030 AT TIME STEP     79, STRESS PERIOD      1
 UBDSV06 SAVING  SOURCE-SINK MIX IN MODEL SVA_TM_T         PACKAGE SVA_TM_T        CONNECTED TO MODEL SVA_TM_T         PACKAGE SSM              ON UNIT   1030 AT TIME STEP     79, STRESS PERIOD      1

 CONCENTRATION WILL BE SAVED ON UNIT 1031 AT END OF TIME STEP   79, STRESS PERIOD    1


  MASS BUDGET FOR ENTIRE MODEL AT END OF TIME STEP   79, STRESS PERIOD   1
  ---------------------------------------------------------------------------------------------------

     CUMULATIVE MASS      M       RATES FOR THIS TIME STEP      M/T          PACKAGE NAME    
     ------------------                 ------------------------                     ----------------

           IN:                                      IN:
           ---                                      ---
     STORAGE-AQUEOUS =       1.0903E-11       STORAGE-AQUEOUS =       7.2782E-25     MST                              
                 WEL =           0.0000                   WEL =           0.0000     SSM_WEL1                         
                 WEL =       7.9000E-02                   WEL =       5.0000E-04     SSM_WEL2                         

            TOTAL IN =       7.9000E-02              TOTAL IN =       5.0000E-04

          OUT:                                     OUT:
          ----                                     ----
     STORAGE-AQUEOUS =       4.9166E-02       STORAGE-AQUEOUS =       1.6883E-04     MST                              
                 WEL =       2.9834E-02                   WEL =       3.3117E-04     SSM_WEL1                         
                 WEL =           0.0000                   WEL =           0.0000     SSM_WEL2                         

           TOTAL OUT =       7.9000E-02             TOTAL OUT =       5.0000E-04

            IN - OUT =      -2.8155E-07              IN - OUT =      -2.0279E-09

 PERCENT DISCREPANCY =          -0.00     PERCENT DISCREPANCY =          -0.00




         TIME SUMMARY AT END OF TIME STEP   79 IN STRESS PERIOD    1
                    SECONDS     MINUTES      HOURS       DAYS        YEARS
                    -----------------------------------------------------------
   TIME STEP LENGTH 1.72800E+05  2880.0      48.000      2.0000     5.47570E-03
 STRESS PERIOD TIME 1.36512E+07 2.27520E+05  3792.0      158.00     0.43258    
         TOTAL TIME 1.36512E+07 2.27520E+05  3792.0      158.00     0.43258    


end timestep


start timestep kper="1" kstp="80" mode="normal"

 UBDSV1 SAVING     FLOW-JA-FACE ON UNIT   1030 AT TIME STEP     80, STRESS PERIOD      1
 UBDSV1 SAVING  STORAGE-AQUEOUS ON UNIT   1030 AT TIME STEP     80, STRESS PERIOD      1
 UBDSV06 SAVING  SOURCE-SINK MIX IN MODEL SVA_TM_T         PACKAGE SVA_TM_T        CONNECTED TO MODEL SVA_TM_T         PACKAGE SSM              ON UNIT   1030 AT TIME STEP     80, STRESS PERIOD      1

 CONCENTRATION WILL BE SAVED ON UNIT 1031 AT END OF TIME STEP   80, STRESS PERIOD    1


  MASS BUDGET FOR ENTIRE MODEL AT END OF TIME STEP   80, STRESS PERIOD   1
  ---------------------------------------------------------------------------------------------------

     CUMULATIVE MASS      M       RATES FOR THIS TIME STEP      M/T          PACKAGE NAME    
     ------------------                 ------------------------                     ----------------

           IN:                                      IN:
           ---                                      ---
     STORAGE-AQUEOUS =       1.0903E-11       STORAGE-AQUEOUS =       5.4685E-25     MST                              
                 WEL =           0.0000                   WEL =           0.0000     SSM_WEL1                         
                 WEL =       8.0000E-02                   WEL =       5.0000E-04     SSM_WEL2                         

            TOTAL IN =       8.0000E-02              TOTAL IN =       5.0000E-04

          OUT:                                     OUT:
          ----                                     ----
     STORAGE-AQUEOUS =       4.9500E-02       STORAGE-AQUEOUS =       1.6711E-04     MST                              
                 WEL =       3.0500E-02                   WEL =       3.3290E-04     SSM_WEL1                         
                 WEL =           0.0000                   WEL =           0.0000     SSM_WEL2                         

           TOTAL OUT =       8.0000E-02             TOTAL OUT =       5.0000E-04

            IN - OUT =      -2.8542E-07              IN - OUT =      -1.9396E-09

 PERCENT DISCREPANCY =          -0.00     PERCENT DISCREPANCY =          -0.00




         TIME SUMMARY AT END OF TIME STEP   80 IN STRESS PERIOD    1
                    SECONDS     MINUTES      HOURS       DAYS        YEARS
                    -----------------------------------------------------------
   TIME STEP LENGTH 1.72800E+05  2880.0      48.000      2.0000     5.47570E-03
 STRESS PERIOD TIME 1.38240E+07 2.30400E+05  3840.0      160.00     0.43806    
         TOTAL TIME 1.38240E+07 2.30400E+05  3840.0      160.00     0.43806    


end timestep


start timestep kper="1" kstp="81" mode="normal"

 UBDSV1 SAVING     FLOW-JA-FACE ON UNIT   1030 AT TIME STEP     81, STRESS PERIOD      1
 UBDSV1 SAVING  STORAGE-AQUEOUS ON UNIT   1030 AT TIME STEP     81, STRESS PERIOD      1
 UBDSV06 SAVING  SOURCE-SINK MIX IN MODEL SVA_TM_T         PACKAGE SVA_TM_T        CONNECTED TO MODEL SVA_TM_T         PACKAGE SSM              ON UNIT   1030 AT TIME STEP     81, STRESS PERIOD      1

 CONCENTRATION WILL BE SAVED ON UNIT 1031 AT END OF TIME STEP   81, STRESS PERIOD    1


  MASS BUDGET FOR ENTIRE MODEL AT END OF TIME STEP   81, STRESS PERIOD   1
  ---------------------------------------------------------------------------------------------------

     CUMULATIVE MASS      M       RATES FOR THIS TIME STEP      M/T          PACKAGE NAME    
     ------------------                 ------------------------                     ----------------

           IN:                                      IN:
           ---                                      ---
     STORAGE-AQUEOUS =       1.0903E-11       STORAGE-AQUEOUS =       4.7109E-25     MST                              
                 WEL =           0.0000                   WEL =           0.0000     SSM_WEL1                         
                 WEL =       8.1000E-02                   WEL =       5.0000E-04     SSM_WEL2                         

            TOTAL IN =       8.1000E-02              TOTAL IN =       5.0000E-04

          OUT:                                     OUT:
          ----                                     ----
     STORAGE-AQUEOUS =       4.9831E-02       STORAGE-AQUEOUS =       1.6542E-04     MST                              
                 WEL =       3.1169E-02                   WEL =       3.3458E-04     SSM_WEL1                         
                 WEL =           0.0000                   WEL =           0.0000     SSM_WEL2                         

           TOTAL OUT =       8.1000E-02             TOTAL OUT =       5.0000E-04

            IN - OUT =      -2.8933E-07              IN - OUT =      -1.9537E-09

 PERCENT DISCREPANCY =          -0.00     PERCENT DISCREPANCY =          -0.00




         TIME SUMMARY AT END OF TIME STEP   81 IN STRESS PERIOD    1
                    SECONDS     MINUTES      HOURS       DAYS        YEARS
                    -----------------------------------------------------------
   TIME STEP LENGTH 1.72800E+05  2880.0      48.000      2.0000     5.47570E-03
 STRESS PERIOD TIME 1.39968E+07 2.33280E+05  3888.0      162.00     0.44353    
         TOTAL TIME 1.39968E+07 2.33280E+05  3888.0      162.00     0.44353    


end timestep


start timestep kper="1" kstp="82" mode="normal"

 UBDSV1 SAVING     FLOW-JA-FACE ON UNIT   1030 AT TIME STEP     82, STRESS PERIOD      1
 UBDSV1 SAVING  STORAGE-AQUEOUS ON UNIT   1030 AT TIME STEP     82, STRESS PERIOD      1
 UBDSV06 SAVING  SOURCE-SINK MIX IN MODEL SVA_TM_T         PACKAGE SVA_TM_T        CONNECTED TO MODEL SVA_TM_T         PACKAGE SSM              ON UNIT   1030 AT TIME STEP     82, STRESS PERIOD      1

 CONCENTRATION WILL BE SAVED ON UNIT 1031 AT END OF TIME STEP   82, STRESS PERIOD    1


  MASS BUDGET FOR ENTIRE MODEL AT END OF TIME STEP   82, STRESS PERIOD   1
  ---------------------------------------------------------------------------------------------------

     CUMULATIVE MASS      M       RATES FOR THIS TIME STEP      M/T          PACKAGE NAME    
     ------------------                 ------------------------                     ----------------

           IN:                                      IN:
           ---                                      ---
     STORAGE-AQUEOUS =       1.0903E-11       STORAGE-AQUEOUS =       4.0143E-25     MST                              
                 WEL =           0.0000                   WEL =           0.0000     SSM_WEL1                         
                 WEL =       8.2000E-02                   WEL =       5.0000E-04     SSM_WEL2                         

            TOTAL IN =       8.2000E-02              TOTAL IN =       5.0000E-04

          OUT:                                     OUT:
          ----                                     ----
     STORAGE-AQUEOUS =       5.0159E-02       STORAGE-AQUEOUS =       1.6377E-04     MST                              
                 WEL =       3.1842E-02                   WEL =       3.3623E-04     SSM_WEL1                         
                 WEL =           0.0000                   WEL =           0.0000     SSM_WEL2                         

           TOTAL OUT =       8.2000E-02             TOTAL OUT =       5.0000E-04

            IN - OUT =      -2.9353E-07              IN - OUT =      -2.1012E-09

 PERCENT DISCREPANCY =          -0.00     PERCENT DISCREPANCY =          -0.00




         TIME SUMMARY AT END OF TIME STEP   82 IN STRESS PERIOD    1
                    SECONDS     MINUTES      HOURS       DAYS        YEARS
                    -----------------------------------------------------------
   TIME STEP LENGTH 1.72800E+05  2880.0      48.000      2.0000     5.47570E-03
 STRESS PERIOD TIME 1.41696E+07 2.36160E+05  3936.0      164.00     0.44901    
         TOTAL TIME 1.41696E+07 2.36160E+05  3936.0      164.00     0.44901    


end timestep


start timestep kper="1" kstp="83" mode="normal"

 UBDSV1 SAVING     FLOW-JA-FACE ON UNIT   1030 AT TIME STEP     83, STRESS PERIOD      1
 UBDSV1 SAVING  STORAGE-AQUEOUS ON UNIT   1030 AT TIME STEP     83, STRESS PERIOD      1
 UBDSV06 SAVING  SOURCE-SINK MIX IN MODEL SVA_TM_T         PACKAGE SVA_TM_T        CONNECTED TO MODEL SVA_TM_T         PACKAGE SSM              ON UNIT   1030 AT TIME STEP     83, STRESS PERIOD      1

 CONCENTRATION WILL BE SAVED ON UNIT 1031 AT END OF TIME STEP   83, STRESS PERIOD    1


  MASS BUDGET FOR ENTIRE MODEL AT END OF TIME STEP   83, STRESS PERIOD   1
  ---------------------------------------------------------------------------------------------------

     CUMULATIVE MASS      M       RATES FOR THIS TIME STEP      M/T          PACKAGE NAME    
     ------------------                 ------------------------                     ----------------

           IN:                                      IN:
           ---                                      ---
     STORAGE-AQUEOUS =       1.0903E-11       STORAGE-AQUEOUS =       3.0770E-25     MST                              
                 WEL =           0.0000                   WEL =           0.0000     SSM_WEL1                         
                 WEL =       8.3000E-02                   WEL =       5.0000E-04     SSM_WEL2                         

            TOTAL IN =       8.3000E-02              TOTAL IN =       5.0000E-04

          OUT:                                     OUT:
          ----                                     ----
     STORAGE-AQUEOUS =       5.0483E-02       STORAGE-AQUEOUS =       1.6216E-04     MST                              
                 WEL =       3.2517E-02                   WEL =       3.3784E-04     SSM_WEL1                         
                 WEL =           0.0000                   WEL =           0.0000     SSM_WEL2                         

           TOTAL OUT =       8.3000E-02             TOTAL OUT =       5.0000E-04

            IN - OUT =      -2.9907E-07              IN - OUT =      -2.7679E-09

 PERCENT DISCREPANCY =          -0.00     PERCENT DISCREPANCY =          -0.00




         TIME SUMMARY AT END OF TIME STEP   83 IN STRESS PERIOD    1
                    SECONDS     MINUTES      HOURS       DAYS        YEARS
                    -----------------------------------------------------------
   TIME STEP LENGTH 1.72800E+05  2880.0      48.000      2.0000     5.47570E-03
 STRESS PERIOD TIME 1.43424E+07 2.39040E+05  3984.0      166.00     0.45448    
         TOTAL TIME 1.43424E+07 2.39040E+05  3984.0      166.00     0.45448    


end timestep


start timestep kper="1" kstp="84" mode="normal"

 UBDSV1 SAVING     FLOW-JA-FACE ON UNIT   1030 AT TIME STEP     84, STRESS PERIOD      1
 UBDSV1 SAVING  STORAGE-AQUEOUS ON UNIT   1030 AT TIME STEP     84, STRESS PERIOD      1
 UBDSV06 SAVING  SOURCE-SINK MIX IN MODEL SVA_TM_T         PACKAGE SVA_TM_T        CONNECTED TO MODEL SVA_TM_T         PACKAGE SSM              ON UNIT   1030 AT TIME STEP     84, STRESS PERIOD      1

 CONCENTRATION WILL BE SAVED ON UNIT 1031 AT END OF TIME STEP   84, STRESS PERIOD    1


  MASS BUDGET FOR ENTIRE MODEL AT END OF TIME STEP   84, STRESS PERIOD   1
  ---------------------------------------------------------------------------------------------------

     CUMULATIVE MASS      M       RATES FOR THIS TIME STEP      M/T          PACKAGE NAME    
     ------------------                 ------------------------                     ----------------

           IN:                                      IN:
           ---                                      ---
     STORAGE-AQUEOUS =       1.0903E-11       STORAGE-AQUEOUS =       2.5125E-25     MST                              
                 WEL =           0.0000                   WEL =           0.0000     SSM_WEL1                         
                 WEL =       8.4000E-02                   WEL =       5.0000E-04     SSM_WEL2                         

            TOTAL IN =       8.4000E-02              TOTAL IN =       5.0000E-04

          OUT:                                     OUT:
          ----                                     ----
     STORAGE-AQUEOUS =       5.0804E-02       STORAGE-AQUEOUS =       1.6059E-04     MST                              
                 WEL =       3.3196E-02                   WEL =       3.3942E-04     SSM_WEL1                         
                 WEL =           0.0000                   WEL =           0.0000     SSM_WEL2                         

           TOTAL OUT =       8.4000E-02             TOTAL OUT =       5.0001E-04

            IN - OUT =      -3.1328E-07              IN - OUT =      -7.1060E-09

 PERCENT DISCREPANCY =          -0.00     PERCENT DISCREPANCY =          -0.00




         TIME SUMMARY AT END OF TIME STEP   84 IN STRESS PERIOD    1
                    SECONDS     MINUTES      HOURS       DAYS        YEARS
                    -----------------------------------------------------------
   TIME STEP LENGTH 1.72800E+05  2880.0      48.000      2.0000     5.47570E-03
 STRESS PERIOD TIME 1.45152E+07 2.41920E+05  4032.0      168.00     0.45996    
         TOTAL TIME 1.45152E+07 2.41920E+05  4032.0      168.00     0.45996    


end timestep


start timestep kper="1" kstp="85" mode="normal"

 UBDSV1 SAVING     FLOW-JA-FACE ON UNIT   1030 AT TIME STEP     85, STRESS PERIOD      1
 UBDSV1 SAVING  STORAGE-AQUEOUS ON UNIT   1030 AT TIME STEP     85, STRESS PERIOD      1
 UBDSV06 SAVING  SOURCE-SINK MIX IN MODEL SVA_TM_T         PACKAGE SVA_TM_T        CONNECTED TO MODEL SVA_TM_T         PACKAGE SSM              ON UNIT   1030 AT TIME STEP     85, STRESS PERIOD      1

 CONCENTRATION WILL BE SAVED ON UNIT 1031 AT END OF TIME STEP   85, STRESS PERIOD    1


  MASS BUDGET FOR ENTIRE MODEL AT END OF TIME STEP   85, STRESS PERIOD   1
  ---------------------------------------------------------------------------------------------------

     CUMULATIVE MASS      M       RATES FOR THIS TIME STEP      M/T          PACKAGE NAME    
     ------------------                 ------------------------                     ----------------

           IN:                                      IN:
           ---                                      ---
     STORAGE-AQUEOUS =       1.0903E-11       STORAGE-AQUEOUS =       2.1611E-25     MST                              
                 WEL =           0.0000                   WEL =           0.0000     SSM_WEL1                         
                 WEL =       8.5000E-02                   WEL =       5.0000E-04     SSM_WEL2                         

            TOTAL IN =       8.5000E-02              TOTAL IN =       5.0000E-04

          OUT:                                     OUT:
          ----                                     ----
     STORAGE-AQUEOUS =       5.1122E-02       STORAGE-AQUEOUS =       1.5906E-04     MST                              
                 WEL =       3.3878E-02                   WEL =       3.4096E-04     SSM_WEL1                         
                 WEL =           0.0000                   WEL =           0.0000     SSM_WEL2                         

           TOTAL OUT =       8.5000E-02             TOTAL OUT =       5.0001E-04

            IN - OUT =      -3.4154E-07              IN - OUT =      -1.4127E-08

 PERCENT DISCREPANCY =          -0.00     PERCENT DISCREPANCY =          -0.00




         TIME SUMMARY AT END OF TIME STEP   85 IN STRESS PERIOD    1
                    SECONDS     MINUTES      HOURS       DAYS        YEARS
                    -----------------------------------------------------------
   TIME STEP LENGTH 1.72800E+05  2880.0      48.000      2.0000     5.47570E-03
 STRESS PERIOD TIME 1.46880E+07 2.44800E+05  4080.0      170.00     0.46543    
         TOTAL TIME 1.46880E+07 2.44800E+05  4080.0      170.00     0.46543    


end timestep


start timestep kper="1" kstp="86" mode="normal"

 UBDSV1 SAVING     FLOW-JA-FACE ON UNIT   1030 AT TIME STEP     86, STRESS PERIOD      1
 UBDSV1 SAVING  STORAGE-AQUEOUS ON UNIT   1030 AT TIME STEP     86, STRESS PERIOD      1
 UBDSV06 SAVING  SOURCE-SINK MIX IN MODEL SVA_TM_T         PACKAGE SVA_TM_T        CONNECTED TO MODEL SVA_TM_T         PACKAGE SSM              ON UNIT   1030 AT TIME STEP     86, STRESS PERIOD      1

 CONCENTRATION WILL BE SAVED ON UNIT 1031 AT END OF TIME STEP   86, STRESS PERIOD    1


  MASS BUDGET FOR ENTIRE MODEL AT END OF TIME STEP   86, STRESS PERIOD   1
  ---------------------------------------------------------------------------------------------------

     CUMULATIVE MASS      M       RATES FOR THIS TIME STEP      M/T          PACKAGE NAME    
     ------------------                 ------------------------                     ----------------

           IN:                                      IN:
           ---                                      ---
     STORAGE-AQUEOUS =       1.0903E-11       STORAGE-AQUEOUS =       1.7720E-25     MST                              
                 WEL =           0.0000                   WEL =           0.0000     SSM_WEL1                         
                 WEL =       8.6000E-02                   WEL =       5.0000E-04     SSM_WEL2                         

            TOTAL IN =       8.6000E-02              TOTAL IN =       5.0000E-04

          OUT:                                     OUT:
          ----                                     ----
     STORAGE-AQUEOUS =       5.1437E-02       STORAGE-AQUEOUS =       1.5755E-04     MST                              
                 WEL =       3.4563E-02                   WEL =       3.4246E-04     SSM_WEL1                         
                 WEL =           0.0000                   WEL =           0.0000     SSM_WEL2                         

           TOTAL OUT =       8.6000E-02             TOTAL OUT =       5.0001E-04

            IN - OUT =      -3.6921E-07              IN - OUT =      -1.3839E-08

 PERCENT DISCREPANCY =          -0.00     PERCENT DISCREPANCY =          -0.00




         TIME SUMMARY AT END OF TIME STEP   86 IN STRESS PERIOD    1
                    SECONDS     MINUTES      HOURS       DAYS        YEARS
                    -----------------------------------------------------------
   TIME STEP LENGTH 1.72800E+05  2880.0      48.000      2.0000     5.47570E-03
 STRESS PERIOD TIME 1.48608E+07 2.47680E+05  4128.0      172.00     0.47091    
         TOTAL TIME 1.48608E+07 2.47680E+05  4128.0      172.00     0.47091    


end timestep


start timestep kper="1" kstp="87" mode="normal"

 UBDSV1 SAVING     FLOW-JA-FACE ON UNIT   1030 AT TIME STEP     87, STRESS PERIOD      1
 UBDSV1 SAVING  STORAGE-AQUEOUS ON UNIT   1030 AT TIME STEP     87, STRESS PERIOD      1
 UBDSV06 SAVING  SOURCE-SINK MIX IN MODEL SVA_TM_T         PACKAGE SVA_TM_T        CONNECTED TO MODEL SVA_TM_T         PACKAGE SSM              ON UNIT   1030 AT TIME STEP     87, STRESS PERIOD      1

 CONCENTRATION WILL BE SAVED ON UNIT 1031 AT END OF TIME STEP   87, STRESS PERIOD    1


  MASS BUDGET FOR ENTIRE MODEL AT END OF TIME STEP   87, STRESS PERIOD   1
  ---------------------------------------------------------------------------------------------------

     CUMULATIVE MASS      M       RATES FOR THIS TIME STEP      M/T          PACKAGE NAME    
     ------------------                 ------------------------                     ----------------

           IN:                                      IN:
           ---                                      ---
     STORAGE-AQUEOUS =       1.0903E-11       STORAGE-AQUEOUS =       1.3361E-25     MST                              
                 WEL =           0.0000                   WEL =           0.0000     SSM_WEL1                         
                 WEL =       8.7000E-02                   WEL =       5.0000E-04     SSM_WEL2                         

            TOTAL IN =       8.7000E-02              TOTAL IN =       5.0000E-04

          OUT:                                     OUT:
          ----                                     ----
     STORAGE-AQUEOUS =       5.1750E-02       STORAGE-AQUEOUS =       1.5608E-04     MST                              
                 WEL =       3.5251E-02                   WEL =       3.4393E-04     SSM_WEL1                         
                 WEL =           0.0000                   WEL =           0.0000     SSM_WEL2                         

           TOTAL OUT =       8.7000E-02             TOTAL OUT =       5.0001E-04

            IN - OUT =      -3.9633E-07              IN - OUT =      -1.3559E-08

 PERCENT DISCREPANCY =          -0.00     PERCENT DISCREPANCY =          -0.00




         TIME SUMMARY AT END OF TIME STEP   87 IN STRESS PERIOD    1
                    SECONDS     MINUTES      HOURS       DAYS        YEARS
                    -----------------------------------------------------------
   TIME STEP LENGTH 1.72800E+05  2880.0      48.000      2.0000     5.47570E-03
 STRESS PERIOD TIME 1.50336E+07 2.50560E+05  4176.0      174.00     0.47639    
         TOTAL TIME 1.50336E+07 2.50560E+05  4176.0      174.00     0.47639    


end timestep


start timestep kper="1" kstp="88" mode="normal"

 UBDSV1 SAVING     FLOW-JA-FACE ON UNIT   1030 AT TIME STEP     88, STRESS PERIOD      1
 UBDSV1 SAVING  STORAGE-AQUEOUS ON UNIT   1030 AT TIME STEP     88, STRESS PERIOD      1
 UBDSV06 SAVING  SOURCE-SINK MIX IN MODEL SVA_TM_T         PACKAGE SVA_TM_T        CONNECTED TO MODEL SVA_TM_T         PACKAGE SSM              ON UNIT   1030 AT TIME STEP     88, STRESS PERIOD      1

 CONCENTRATION WILL BE SAVED ON UNIT 1031 AT END OF TIME STEP   88, STRESS PERIOD    1


  MASS BUDGET FOR ENTIRE MODEL AT END OF TIME STEP   88, STRESS PERIOD   1
  ---------------------------------------------------------------------------------------------------

     CUMULATIVE MASS      M       RATES FOR THIS TIME STEP      M/T          PACKAGE NAME    
     ------------------                 ------------------------                     ----------------

           IN:                                      IN:
           ---                                      ---
     STORAGE-AQUEOUS =       1.0903E-11       STORAGE-AQUEOUS =       1.1456E-25     MST                              
                 WEL =           0.0000                   WEL =           0.0000     SSM_WEL1                         
                 WEL =       8.8000E-02                   WEL =       5.0000E-04     SSM_WEL2                         

            TOTAL IN =       8.8000E-02              TOTAL IN =       5.0000E-04

          OUT:                                     OUT:
          ----                                     ----
     STORAGE-AQUEOUS =       5.2059E-02       STORAGE-AQUEOUS =       1.5464E-04     MST                              
                 WEL =       3.5942E-02                   WEL =       3.4537E-04     SSM_WEL1                         
                 WEL =           0.0000                   WEL =           0.0000     SSM_WEL2                         

           TOTAL OUT =       8.8000E-02             TOTAL OUT =       5.0001E-04

            IN - OUT =      -4.2279E-07              IN - OUT =      -1.3231E-08

 PERCENT DISCREPANCY =          -0.00     PERCENT DISCREPANCY =          -0.00




         TIME SUMMARY AT END OF TIME STEP   88 IN STRESS PERIOD    1
                    SECONDS     MINUTES      HOURS       DAYS        YEARS
                    -----------------------------------------------------------
   TIME STEP LENGTH 1.72800E+05  2880.0      48.000      2.0000     5.47570E-03
 STRESS PERIOD TIME 1.52064E+07 2.53440E+05  4224.0      176.00     0.48186    
         TOTAL TIME 1.52064E+07 2.53440E+05  4224.0      176.00     0.48186    


end timestep


start timestep kper="1" kstp="89" mode="normal"

 UBDSV1 SAVING     FLOW-JA-FACE ON UNIT   1030 AT TIME STEP     89, STRESS PERIOD      1
 UBDSV1 SAVING  STORAGE-AQUEOUS ON UNIT   1030 AT TIME STEP     89, STRESS PERIOD      1
 UBDSV06 SAVING  SOURCE-SINK MIX IN MODEL SVA_TM_T         PACKAGE SVA_TM_T        CONNECTED TO MODEL SVA_TM_T         PACKAGE SSM              ON UNIT   1030 AT TIME STEP     89, STRESS PERIOD      1

 CONCENTRATION WILL BE SAVED ON UNIT 1031 AT END OF TIME STEP   89, STRESS PERIOD    1


  MASS BUDGET FOR ENTIRE MODEL AT END OF TIME STEP   89, STRESS PERIOD   1
  ---------------------------------------------------------------------------------------------------

     CUMULATIVE MASS      M       RATES FOR THIS TIME STEP      M/T          PACKAGE NAME    
     ------------------                 ------------------------                     ----------------

           IN:                                      IN:
           ---                                      ---
     STORAGE-AQUEOUS =       1.0903E-11       STORAGE-AQUEOUS =       9.6878E-26     MST                              
                 WEL =           0.0000                   WEL =           0.0000     SSM_WEL1                         
                 WEL =       8.9000E-02                   WEL =       5.0000E-04     SSM_WEL2                         

            TOTAL IN =       8.9000E-02              TOTAL IN =       5.0000E-04

          OUT:                                     OUT:
          ----                                     ----
     STORAGE-AQUEOUS =       5.2365E-02       STORAGE-AQUEOUS =       1.5324E-04     MST                              
                 WEL =       3.6635E-02                   WEL =       3.4677E-04     SSM_WEL1                         
                 WEL =           0.0000                   WEL =           0.0000     SSM_WEL2                         

           TOTAL OUT =       8.9000E-02             TOTAL OUT =       5.0001E-04

            IN - OUT =      -4.4873E-07              IN - OUT =      -1.2968E-08

 PERCENT DISCREPANCY =          -0.00     PERCENT DISCREPANCY =          -0.00




         TIME SUMMARY AT END OF TIME STEP   89 IN STRESS PERIOD    1
                    SECONDS     MINUTES      HOURS       DAYS        YEARS
                    -----------------------------------------------------------
   TIME STEP LENGTH 1.72800E+05  2880.0      48.000      2.0000     5.47570E-03
 STRESS PERIOD TIME 1.53792E+07 2.56320E+05  4272.0      178.00     0.48734    
         TOTAL TIME 1.53792E+07 2.56320E+05  4272.0      178.00     0.48734    


end timestep


start timestep kper="1" kstp="90" mode="normal"

 UBDSV1 SAVING     FLOW-JA-FACE ON UNIT   1030 AT TIME STEP     90, STRESS PERIOD      1
 UBDSV1 SAVING  STORAGE-AQUEOUS ON UNIT   1030 AT TIME STEP     90, STRESS PERIOD      1
 UBDSV06 SAVING  SOURCE-SINK MIX IN MODEL SVA_TM_T         PACKAGE SVA_TM_T        CONNECTED TO MODEL SVA_TM_T         PACKAGE SSM              ON UNIT   1030 AT TIME STEP     90, STRESS PERIOD      1

 CONCENTRATION WILL BE SAVED ON UNIT 1031 AT END OF TIME STEP   90, STRESS PERIOD    1


  MASS BUDGET FOR ENTIRE MODEL AT END OF TIME STEP   90, STRESS PERIOD   1
  ---------------------------------------------------------------------------------------------------

     CUMULATIVE MASS      M       RATES FOR THIS TIME STEP      M/T          PACKAGE NAME    
     ------------------                 ------------------------                     ----------------

           IN:                                      IN:
           ---                                      ---
     STORAGE-AQUEOUS =       1.0903E-11       STORAGE-AQUEOUS =       7.3475E-26     MST                              
                 WEL =           0.0000                   WEL =           0.0000     SSM_WEL1                         
                 WEL =       9.0000E-02                   WEL =       5.0000E-04     SSM_WEL2                         

            TOTAL IN =       9.0000E-02              TOTAL IN =       5.0000E-04

          OUT:                                     OUT:
          ----                                     ----
     STORAGE-AQUEOUS =       5.2669E-02       STORAGE-AQUEOUS =       1.5187E-04     MST                              
                 WEL =       3.7331E-02                   WEL =       3.4814E-04     SSM_WEL1                         
                 WEL =           0.0000                   WEL =           0.0000     SSM_WEL2                         

           TOTAL OUT =       9.0000E-02             TOTAL OUT =       5.0001E-04

            IN - OUT =      -4.7430E-07              IN - OUT =      -1.2786E-08

 PERCENT DISCREPANCY =          -0.00     PERCENT DISCREPANCY =          -0.00




         TIME SUMMARY AT END OF TIME STEP   90 IN STRESS PERIOD    1
                    SECONDS     MINUTES      HOURS       DAYS        YEARS
                    -----------------------------------------------------------
   TIME STEP LENGTH 1.72800E+05  2880.0      48.000      2.0000     5.47570E-03
 STRESS PERIOD TIME 1.55520E+07 2.59200E+05  4320.0      180.00     0.49281    
         TOTAL TIME 1.55520E+07 2.59200E+05  4320.0      180.00     0.49281    


end timestep


start timestep kper="1" kstp="91" mode="normal"

 UBDSV1 SAVING     FLOW-JA-FACE ON UNIT   1030 AT TIME STEP     91, STRESS PERIOD      1
 UBDSV1 SAVING  STORAGE-AQUEOUS ON UNIT   1030 AT TIME STEP     91, STRESS PERIOD      1
 UBDSV06 SAVING  SOURCE-SINK MIX IN MODEL SVA_TM_T         PACKAGE SVA_TM_T        CONNECTED TO MODEL SVA_TM_T         PACKAGE SSM              ON UNIT   1030 AT TIME STEP     91, STRESS PERIOD      1

 CONCENTRATION WILL BE SAVED ON UNIT 1031 AT END OF TIME STEP   91, STRESS PERIOD    1


  MASS BUDGET FOR ENTIRE MODEL AT END OF TIME STEP   91, STRESS PERIOD   1
  ---------------------------------------------------------------------------------------------------

     CUMULATIVE MASS      M       RATES FOR THIS TIME STEP      M/T          PACKAGE NAME    
     ------------------                 ------------------------                     ----------------

           IN:                                      IN:
           ---                                      ---
     STORAGE-AQUEOUS =       1.0903E-11       STORAGE-AQUEOUS =       5.9600E-26     MST                              
                 WEL =           0.0000                   WEL =           0.0000     SSM_WEL1                         
                 WEL =       9.1000E-02                   WEL =       5.0000E-04     SSM_WEL2                         

            TOTAL IN =       9.1000E-02              TOTAL IN =       5.0000E-04

          OUT:                                     OUT:
          ----                                     ----
     STORAGE-AQUEOUS =       5.2970E-02       STORAGE-AQUEOUS =       1.5053E-04     MST                              
                 WEL =       3.8030E-02                   WEL =       3.4948E-04     SSM_WEL1                         
                 WEL =           0.0000                   WEL =           0.0000     SSM_WEL2                         

           TOTAL OUT =       9.1000E-02             TOTAL OUT =       5.0001E-04

            IN - OUT =      -4.9937E-07              IN - OUT =      -1.2536E-08

 PERCENT DISCREPANCY =          -0.00     PERCENT DISCREPANCY =          -0.00




         TIME SUMMARY AT END OF TIME STEP   91 IN STRESS PERIOD    1
                    SECONDS     MINUTES      HOURS       DAYS        YEARS
                    -----------------------------------------------------------
   TIME STEP LENGTH 1.72800E+05  2880.0      48.000      2.0000     5.47570E-03
 STRESS PERIOD TIME 1.57248E+07 2.62080E+05  4368.0      182.00     0.49829    
         TOTAL TIME 1.57248E+07 2.62080E+05  4368.0      182.00     0.49829    


end timestep


start timestep kper="1" kstp="92" mode="normal"

 UBDSV1 SAVING     FLOW-JA-FACE ON UNIT   1030 AT TIME STEP     92, STRESS PERIOD      1
 UBDSV1 SAVING  STORAGE-AQUEOUS ON UNIT   1030 AT TIME STEP     92, STRESS PERIOD      1
 UBDSV06 SAVING  SOURCE-SINK MIX IN MODEL SVA_TM_T         PACKAGE SVA_TM_T        CONNECTED TO MODEL SVA_TM_T         PACKAGE SSM              ON UNIT   1030 AT TIME STEP     92, STRESS PERIOD      1

 CONCENTRATION WILL BE SAVED ON UNIT 1031 AT END OF TIME STEP   92, STRESS PERIOD    1


  MASS BUDGET FOR ENTIRE MODEL AT END OF TIME STEP   92, STRESS PERIOD   1
  ---------------------------------------------------------------------------------------------------

     CUMULATIVE MASS      M       RATES FOR THIS TIME STEP      M/T          PACKAGE NAME    
     ------------------                 ------------------------                     ----------------

           IN:                                      IN:
           ---                                      ---
     STORAGE-AQUEOUS =       1.0903E-11       STORAGE-AQUEOUS =       5.0814E-26     MST                              
                 WEL =           0.0000                   WEL =           0.0000     SSM_WEL1                         
                 WEL =       9.2000E-02                   WEL =       5.0000E-04     SSM_WEL2                         

            TOTAL IN =       9.2000E-02              TOTAL IN =       5.0000E-04

          OUT:                                     OUT:
          ----                                     ----
     STORAGE-AQUEOUS =       5.3269E-02       STORAGE-AQUEOUS =       1.4923E-04     MST                              
                 WEL =       3.8732E-02                   WEL =       3.5079E-04     SSM_WEL1                         
                 WEL =           0.0000                   WEL =           0.0000     SSM_WEL2                         

           TOTAL OUT =       9.2001E-02             TOTAL OUT =       5.0001E-04

            IN - OUT =      -5.2404E-07              IN - OUT =      -1.2335E-08

 PERCENT DISCREPANCY =          -0.00     PERCENT DISCREPANCY =          -0.00




         TIME SUMMARY AT END OF TIME STEP   92 IN STRESS PERIOD    1
                    SECONDS     MINUTES      HOURS       DAYS        YEARS
                    -----------------------------------------------------------
   TIME STEP LENGTH 1.72800E+05  2880.0      48.000      2.0000     5.47570E-03
 STRESS PERIOD TIME 1.58976E+07 2.64960E+05  4416.0      184.00     0.50376    
         TOTAL TIME 1.58976E+07 2.64960E+05  4416.0      184.00     0.50376    


end timestep


start timestep kper="1" kstp="93" mode="normal"

 UBDSV1 SAVING     FLOW-JA-FACE ON UNIT   1030 AT TIME STEP     93, STRESS PERIOD      1
 UBDSV1 SAVING  STORAGE-AQUEOUS ON UNIT   1030 AT TIME STEP     93, STRESS PERIOD      1
 UBDSV06 SAVING  SOURCE-SINK MIX IN MODEL SVA_TM_T         PACKAGE SVA_TM_T        CONNECTED TO MODEL SVA_TM_T         PACKAGE SSM              ON UNIT   1030 AT TIME STEP     93, STRESS PERIOD      1

 CONCENTRATION WILL BE SAVED ON UNIT 1031 AT END OF TIME STEP   93, STRESS PERIOD    1


  MASS BUDGET FOR ENTIRE MODEL AT END OF TIME STEP   93, STRESS PERIOD   1
  ---------------------------------------------------------------------------------------------------

     CUMULATIVE MASS      M       RATES FOR THIS TIME STEP      M/T          PACKAGE NAME    
     ------------------                 ------------------------                     ----------------

           IN:                                      IN:
           ---                                      ---
     STORAGE-AQUEOUS =       1.0903E-11       STORAGE-AQUEOUS =       4.1609E-26     MST                              
                 WEL =           0.0000                   WEL =           0.0000     SSM_WEL1                         
                 WEL =       9.3000E-02                   WEL =       5.0000E-04     SSM_WEL2                         

            TOTAL IN =       9.3000E-02              TOTAL IN =       5.0000E-04

          OUT:                                     OUT:
          ----                                     ----
     STORAGE-AQUEOUS =       5.3564E-02       STORAGE-AQUEOUS =       1.4795E-04     MST                              
                 WEL =       3.9436E-02                   WEL =       3.5206E-04     SSM_WEL1                         
                 WEL =           0.0000                   WEL =           0.0000     SSM_WEL2                         

           TOTAL OUT =       9.3001E-02             TOTAL OUT =       5.0001E-04

            IN - OUT =      -5.4821E-07              IN - OUT =      -1.2084E-08

 PERCENT DISCREPANCY =          -0.00     PERCENT DISCREPANCY =          -0.00




         TIME SUMMARY AT END OF TIME STEP   93 IN STRESS PERIOD    1
                    SECONDS     MINUTES      HOURS       DAYS        YEARS
                    -----------------------------------------------------------
   TIME STEP LENGTH 1.72800E+05  2880.0      48.000      2.0000     5.47570E-03
 STRESS PERIOD TIME 1.60704E+07 2.67840E+05  4464.0      186.00     0.50924    
         TOTAL TIME 1.60704E+07 2.67840E+05  4464.0      186.00     0.50924    


end timestep


start timestep kper="1" kstp="94" mode="normal"

 UBDSV1 SAVING     FLOW-JA-FACE ON UNIT   1030 AT TIME STEP     94, STRESS PERIOD      1
 UBDSV1 SAVING  STORAGE-AQUEOUS ON UNIT   1030 AT TIME STEP     94, STRESS PERIOD      1
 UBDSV06 SAVING  SOURCE-SINK MIX IN MODEL SVA_TM_T         PACKAGE SVA_TM_T        CONNECTED TO MODEL SVA_TM_T         PACKAGE SSM              ON UNIT   1030 AT TIME STEP     94, STRESS PERIOD      1

 CONCENTRATION WILL BE SAVED ON UNIT 1031 AT END OF TIME STEP   94, STRESS PERIOD    1


  MASS BUDGET FOR ENTIRE MODEL AT END OF TIME STEP   94, STRESS PERIOD   1
  ---------------------------------------------------------------------------------------------------

     CUMULATIVE MASS      M       RATES FOR THIS TIME STEP      M/T          PACKAGE NAME    
     ------------------                 ------------------------                     ----------------

           IN:                                      IN:
           ---                                      ---
     STORAGE-AQUEOUS =       1.0903E-11       STORAGE-AQUEOUS =       2.9994E-26     MST                              
                 WEL =           0.0000                   WEL =           0.0000     SSM_WEL1                         
                 WEL =       9.4000E-02                   WEL =       5.0000E-04     SSM_WEL2                         

            TOTAL IN =       9.4000E-02              TOTAL IN =       5.0000E-04

          OUT:                                     OUT:
          ----                                     ----
     STORAGE-AQUEOUS =       5.3858E-02       STORAGE-AQUEOUS =       1.4670E-04     MST                              
                 WEL =       4.0143E-02                   WEL =       3.5331E-04     SSM_WEL1                         
                 WEL =           0.0000                   WEL =           0.0000     SSM_WEL2                         

           TOTAL OUT =       9.4001E-02             TOTAL OUT =       5.0001E-04

            IN - OUT =      -5.7203E-07              IN - OUT =      -1.1911E-08

 PERCENT DISCREPANCY =          -0.00     PERCENT DISCREPANCY =          -0.00




         TIME SUMMARY AT END OF TIME STEP   94 IN STRESS PERIOD    1
                    SECONDS     MINUTES      HOURS       DAYS        YEARS
                    -----------------------------------------------------------
   TIME STEP LENGTH 1.72800E+05  2880.0      48.000      2.0000     5.47570E-03
 STRESS PERIOD TIME 1.62432E+07 2.70720E+05  4512.0      188.00     0.51472    
         TOTAL TIME 1.62432E+07 2.70720E+05  4512.0      188.00     0.51472    


end timestep


start timestep kper="1" kstp="95" mode="normal"

 UBDSV1 SAVING     FLOW-JA-FACE ON UNIT   1030 AT TIME STEP     95, STRESS PERIOD      1
 UBDSV1 SAVING  STORAGE-AQUEOUS ON UNIT   1030 AT TIME STEP     95, STRESS PERIOD      1
 UBDSV06 SAVING  SOURCE-SINK MIX IN MODEL SVA_TM_T         PACKAGE SVA_TM_T        CONNECTED TO MODEL SVA_TM_T         PACKAGE SSM              ON UNIT   1030 AT TIME STEP     95, STRESS PERIOD      1

 CONCENTRATION WILL BE SAVED ON UNIT 1031 AT END OF TIME STEP   95, STRESS PERIOD    1


  MASS BUDGET FOR ENTIRE MODEL AT END OF TIME STEP   95, STRESS PERIOD   1
  ---------------------------------------------------------------------------------------------------

     CUMULATIVE MASS      M       RATES FOR THIS TIME STEP      M/T          PACKAGE NAME    
     ------------------                 ------------------------                     ----------------

           IN:                                      IN:
           ---                                      ---
     STORAGE-AQUEOUS =       1.0903E-11       STORAGE-AQUEOUS =       2.5549E-26     MST                              
                 WEL =           0.0000                   WEL =           0.0000     SSM_WEL1                         
                 WEL =       9.5000E-02                   WEL =       5.0000E-04     SSM_WEL2                         

            TOTAL IN =       9.5000E-02              TOTAL IN =       5.0000E-04

          OUT:                                     OUT:
          ----                                     ----
     STORAGE-AQUEOUS =       5.4149E-02       STORAGE-AQUEOUS =       1.4548E-04     MST                              
                 WEL =       4.0852E-02                   WEL =       3.5453E-04     SSM_WEL1                         
                 WEL =           0.0000                   WEL =           0.0000     SSM_WEL2                         

           TOTAL OUT =       9.5001E-02             TOTAL OUT =       5.0001E-04

            IN - OUT =      -5.9552E-07              IN - OUT =      -1.1743E-08

 PERCENT DISCREPANCY =          -0.00     PERCENT DISCREPANCY =          -0.00




         TIME SUMMARY AT END OF TIME STEP   95 IN STRESS PERIOD    1
                    SECONDS     MINUTES      HOURS       DAYS        YEARS
                    -----------------------------------------------------------
   TIME STEP LENGTH 1.72800E+05  2880.0      48.000      2.0000     5.47570E-03
 STRESS PERIOD TIME 1.64160E+07 2.73600E+05  4560.0      190.00     0.52019    
         TOTAL TIME 1.64160E+07 2.73600E+05  4560.0      190.00     0.52019    


end timestep


start timestep kper="1" kstp="96" mode="normal"

 UBDSV1 SAVING     FLOW-JA-FACE ON UNIT   1030 AT TIME STEP     96, STRESS PERIOD      1
 UBDSV1 SAVING  STORAGE-AQUEOUS ON UNIT   1030 AT TIME STEP     96, STRESS PERIOD      1
 UBDSV06 SAVING  SOURCE-SINK MIX IN MODEL SVA_TM_T         PACKAGE SVA_TM_T        CONNECTED TO MODEL SVA_TM_T         PACKAGE SSM              ON UNIT   1030 AT TIME STEP     96, STRESS PERIOD      1

 CONCENTRATION WILL BE SAVED ON UNIT 1031 AT END OF TIME STEP   96, STRESS PERIOD    1


  MASS BUDGET FOR ENTIRE MODEL AT END OF TIME STEP   96, STRESS PERIOD   1
  ---------------------------------------------------------------------------------------------------

     CUMULATIVE MASS      M       RATES FOR THIS TIME STEP      M/T          PACKAGE NAME    
     ------------------                 ------------------------                     ----------------

           IN:                                      IN:
           ---                                      ---
     STORAGE-AQUEOUS =       1.0903E-11       STORAGE-AQUEOUS =       2.1429E-26     MST                              
                 WEL =           0.0000                   WEL =           0.0000     SSM_WEL1                         
                 WEL =       9.6000E-02                   WEL =       5.0000E-04     SSM_WEL2                         

            TOTAL IN =       9.6000E-02              TOTAL IN =       5.0000E-04

          OUT:                                     OUT:
          ----                                     ----
     STORAGE-AQUEOUS =       5.4437E-02       STORAGE-AQUEOUS =       1.4429E-04     MST                              
                 WEL =       4.1563E-02                   WEL =       3.5572E-04     SSM_WEL1                         
                 WEL =           0.0000                   WEL =           0.0000     SSM_WEL2                         

           TOTAL OUT =       9.6001E-02             TOTAL OUT =       5.0001E-04

            IN - OUT =      -6.0997E-07              IN - OUT =      -7.2254E-09

 PERCENT DISCREPANCY =          -0.00     PERCENT DISCREPANCY =          -0.00




         TIME SUMMARY AT END OF TIME STEP   96 IN STRESS PERIOD    1
                    SECONDS     MINUTES      HOURS       DAYS        YEARS
                    -----------------------------------------------------------
   TIME STEP LENGTH 1.72800E+05  2880.0      48.000      2.0000     5.47570E-03
 STRESS PERIOD TIME 1.65888E+07 2.76480E+05  4608.0      192.00     0.52567    
         TOTAL TIME 1.65888E+07 2.76480E+05  4608.0      192.00     0.52567    


end timestep


start timestep kper="1" kstp="97" mode="normal"

 UBDSV1 SAVING     FLOW-JA-FACE ON UNIT   1030 AT TIME STEP     97, STRESS PERIOD      1
 UBDSV1 SAVING  STORAGE-AQUEOUS ON UNIT   1030 AT TIME STEP     97, STRESS PERIOD      1
 UBDSV06 SAVING  SOURCE-SINK MIX IN MODEL SVA_TM_T         PACKAGE SVA_TM_T        CONNECTED TO MODEL SVA_TM_T         PACKAGE SSM              ON UNIT   1030 AT TIME STEP     97, STRESS PERIOD      1

 CONCENTRATION WILL BE SAVED ON UNIT 1031 AT END OF TIME STEP   97, STRESS PERIOD    1


  MASS BUDGET FOR ENTIRE MODEL AT END OF TIME STEP   97, STRESS PERIOD   1
  ---------------------------------------------------------------------------------------------------

     CUMULATIVE MASS      M       RATES FOR THIS TIME STEP      M/T          PACKAGE NAME    
     ------------------                 ------------------------                     ----------------

           IN:                                      IN:
           ---                                      ---
     STORAGE-AQUEOUS =       1.0903E-11       STORAGE-AQUEOUS =       1.5781E-26     MST                              
                 WEL =           0.0000                   WEL =           0.0000     SSM_WEL1                         
                 WEL =       9.7000E-02                   WEL =       5.0000E-04     SSM_WEL2                         

            TOTAL IN =       9.7000E-02              TOTAL IN =       5.0000E-04

          OUT:                                     OUT:
          ----                                     ----
     STORAGE-AQUEOUS =       5.4724E-02       STORAGE-AQUEOUS =       1.4313E-04     MST                              
                 WEL =       4.2277E-02                   WEL =       3.5688E-04     SSM_WEL1                         
                 WEL =           0.0000                   WEL =           0.0000     SSM_WEL2                         

           TOTAL OUT =       9.7001E-02             TOTAL OUT =       5.0001E-04

            IN - OUT =      -6.2145E-07              IN - OUT =      -5.7396E-09

 PERCENT DISCREPANCY =          -0.00     PERCENT DISCREPANCY =          -0.00




         TIME SUMMARY AT END OF TIME STEP   97 IN STRESS PERIOD    1
                    SECONDS     MINUTES      HOURS       DAYS        YEARS
                    -----------------------------------------------------------
   TIME STEP LENGTH 1.72800E+05  2880.0      48.000      2.0000     5.47570E-03
 STRESS PERIOD TIME 1.67616E+07 2.79360E+05  4656.0      194.00     0.53114    
         TOTAL TIME 1.67616E+07 2.79360E+05  4656.0      194.00     0.53114    


end timestep


start timestep kper="1" kstp="98" mode="normal"

 UBDSV1 SAVING     FLOW-JA-FACE ON UNIT   1030 AT TIME STEP     98, STRESS PERIOD      1
 UBDSV1 SAVING  STORAGE-AQUEOUS ON UNIT   1030 AT TIME STEP     98, STRESS PERIOD      1
 UBDSV06 SAVING  SOURCE-SINK MIX IN MODEL SVA_TM_T         PACKAGE SVA_TM_T        CONNECTED TO MODEL SVA_TM_T         PACKAGE SSM              ON UNIT   1030 AT TIME STEP     98, STRESS PERIOD      1

 CONCENTRATION WILL BE SAVED ON UNIT 1031 AT END OF TIME STEP   98, STRESS PERIOD    1


  MASS BUDGET FOR ENTIRE MODEL AT END OF TIME STEP   98, STRESS PERIOD   1
  ---------------------------------------------------------------------------------------------------

     CUMULATIVE MASS      M       RATES FOR THIS TIME STEP      M/T          PACKAGE NAME    
     ------------------                 ------------------------                     ----------------

           IN:                                      IN:
           ---                                      ---
     STORAGE-AQUEOUS =       1.0903E-11       STORAGE-AQUEOUS =       1.1651E-26     MST                              
                 WEL =           0.0000                   WEL =           0.0000     SSM_WEL1                         
                 WEL =       9.8000E-02                   WEL =       5.0000E-04     SSM_WEL2                         

            TOTAL IN =       9.8000E-02              TOTAL IN =       5.0000E-04

          OUT:                                     OUT:
          ----                                     ----
     STORAGE-AQUEOUS =       5.5008E-02       STORAGE-AQUEOUS =       1.4199E-04     MST                              
                 WEL =       4.2993E-02                   WEL =       3.5802E-04     SSM_WEL1                         
                 WEL =           0.0000                   WEL =           0.0000     SSM_WEL2                         

           TOTAL OUT =       9.8001E-02             TOTAL OUT =       5.0000E-04

            IN - OUT =      -6.2943E-07              IN - OUT =      -3.9916E-09

 PERCENT DISCREPANCY =          -0.00     PERCENT DISCREPANCY =          -0.00




         TIME SUMMARY AT END OF TIME STEP   98 IN STRESS PERIOD    1
                    SECONDS     MINUTES      HOURS       DAYS        YEARS
                    -----------------------------------------------------------
   TIME STEP LENGTH 1.72800E+05  2880.0      48.000      2.0000     5.47570E-03
 STRESS PERIOD TIME 1.69344E+07 2.82240E+05  4704.0      196.00     0.53662    
         TOTAL TIME 1.69344E+07 2.82240E+05  4704.0      196.00     0.53662    


end timestep


start timestep kper="1" kstp="99" mode="normal"

 UBDSV1 SAVING     FLOW-JA-FACE ON UNIT   1030 AT TIME STEP     99, STRESS PERIOD      1
 UBDSV1 SAVING  STORAGE-AQUEOUS ON UNIT   1030 AT TIME STEP     99, STRESS PERIOD      1
 UBDSV06 SAVING  SOURCE-SINK MIX IN MODEL SVA_TM_T         PACKAGE SVA_TM_T        CONNECTED TO MODEL SVA_TM_T         PACKAGE SSM              ON UNIT   1030 AT TIME STEP     99, STRESS PERIOD      1

 CONCENTRATION WILL BE SAVED ON UNIT 1031 AT END OF TIME STEP   99, STRESS PERIOD    1


  MASS BUDGET FOR ENTIRE MODEL AT END OF TIME STEP   99, STRESS PERIOD   1
  ---------------------------------------------------------------------------------------------------

     CUMULATIVE MASS      M       RATES FOR THIS TIME STEP      M/T          PACKAGE NAME    
     ------------------                 ------------------------                     ----------------

           IN:                                      IN:
           ---                                      ---
     STORAGE-AQUEOUS =       1.0903E-11       STORAGE-AQUEOUS =       1.0109E-26     MST                              
                 WEL =           0.0000                   WEL =           0.0000     SSM_WEL1                         
                 WEL =       9.9000E-02                   WEL =       5.0000E-04     SSM_WEL2                         

            TOTAL IN =       9.9000E-02              TOTAL IN =       5.0000E-04

          OUT:                                     OUT:
          ----                                     ----
     STORAGE-AQUEOUS =       5.5289E-02       STORAGE-AQUEOUS =       1.4088E-04     MST                              
                 WEL =       4.3711E-02                   WEL =       3.5913E-04     SSM_WEL1                         
                 WEL =           0.0000                   WEL =           0.0000     SSM_WEL2                         

           TOTAL OUT =       9.9001E-02             TOTAL OUT =       5.0000E-04

            IN - OUT =      -6.3434E-07              IN - OUT =      -2.4519E-09

 PERCENT DISCREPANCY =          -0.00     PERCENT DISCREPANCY =          -0.00




         TIME SUMMARY AT END OF TIME STEP   99 IN STRESS PERIOD    1
                    SECONDS     MINUTES      HOURS       DAYS        YEARS
                    -----------------------------------------------------------
   TIME STEP LENGTH 1.72800E+05  2880.0      48.000      2.0000     5.47570E-03
 STRESS PERIOD TIME 1.71072E+07 2.85120E+05  4752.0      198.00     0.54209    
         TOTAL TIME 1.71072E+07 2.85120E+05  4752.0      198.00     0.54209    


end timestep


start timestep kper="1" kstp="100" mode="normal"

 UBDSV1 SAVING     FLOW-JA-FACE ON UNIT   1030 AT TIME STEP    100, STRESS PERIOD      1
 UBDSV1 SAVING  STORAGE-AQUEOUS ON UNIT   1030 AT TIME STEP    100, STRESS PERIOD      1
 UBDSV06 SAVING  SOURCE-SINK MIX IN MODEL SVA_TM_T         PACKAGE SVA_TM_T        CONNECTED TO MODEL SVA_TM_T         PACKAGE SSM              ON UNIT   1030 AT TIME STEP    100, STRESS PERIOD      1
1
  CONCENTRATION IN LAYER   1 AT END OF TIME STEP 100 IN STRESS PERIOD    1
  ---------------------------------------------------------------------------

                1               2               3               4               5               6               7               8               9              10
               11              12              13              14              15              16              17              18              19              20
               21              22              23              24              25              26              27              28              29              30
               31              32              33              34              35              36              37              38              39              40
               41              42              43              44              45              46              47              48              49              50
 ................................................................................................................................................................
   1     5.939534E-45    5.862931E-42    3.004861E-39    1.023261E-36    2.632367E-34    5.460576E-32    9.480072E-30    1.404095E-27    1.778929E-25    1.899529E-23
         1.659663E-21    1.159350E-19    6.925488E-18    2.506389E-15    1.669277E-12    1.497850E-09    6.989525E-07    4.097851E-05    5.113271E-04    3.719871E-03
         9.525527E-03    9.111387E-03    6.263502E-03    3.101317E-03    1.237408E-03    4.175087E-04    1.173358E-04    2.708551E-05    5.162556E-06    8.237430E-07
         1.107921E-07    1.245097E-08    1.146284E-09    8.384862E-11    4.727509E-12    2.090345E-13    7.890715E-15    2.937171E-16    2.676504E-17    2.557989E-18
         1.754358E-19    8.928784E-21    3.431394E-22    1.015639E-23    2.351188E-25    4.277730E-27    6.041694E-29    6.353835E-31    4.472792E-33    1.676630E-35
   2     6.107089E-44    7.350786E-41    4.574387E-38    1.870831E-35    5.690755E-33    1.366299E-30    2.674414E-28    4.348543E-26    5.920562E-24    6.681692E-22
         5.949388E-20    3.681115E-18    5.794680E-16    2.099321E-13    9.259007E-11    6.001748E-08    2.614832E-05    1.472313E-03    1.438084E-02    3.081988E-02
         6.794640E-02    6.522739E-02    4.757234E-02    2.600482E-02    1.162832E-02    4.209194E-03    1.193639E-03    2.631882E-04    4.616242E-05    6.643517E-06
         7.986833E-07    8.002031E-08    6.606822E-09    4.446831E-10    2.552124E-11    1.487381E-12    1.179594E-13    1.040283E-14    5.629949E-16    2.765403E-17
         1.828153E-18    7.427183E-20    2.022875E-21    3.954285E-23    5.796771E-25    6.525065E-27    5.650297E-29    3.650965E-31    1.596712E-33    3.808306E-36
   3     8.805415E-43    1.239757E-39    9.160542E-37    4.435672E-34    1.571117E-31    4.292741E-29    9.297100E-27    1.621883E-24    2.308398E-22    2.707610E-20
         2.610486E-18    2.180397E-16    6.294966E-14    1.718916E-11    4.927793E-09    1.764998E-06    3.872449E-04    1.767578E-02    0.116007        0.222051    
         0.247324        0.234972        0.176731        0.102958        4.695879E-02    1.583277E-02    3.708946E-03    6.220377E-04    8.006518E-05    8.723664E-06
         8.884692E-07    9.374858E-08    1.118928E-08    1.615151E-09    2.459503E-10    3.627116E-11    6.053022E-12    7.685836E-13    4.852774E-14    2.332295E-15
         6.845303E-17    2.588819E-18    5.585076E-20    7.915678E-22    7.917653E-24    5.825011E-26    3.198850E-28    1.285751E-30    3.496181E-33    5.297263E-36
   4     1.879418E-41    2.851514E-38    2.323998E-35    1.251552E-32    4.883558E-30    1.441151E-27    3.281210E-25    5.833074E-23    8.218189E-21    9.352862E-19
         8.648796E-17    2.796318E-14    7.462060E-12    1.578656E-09    2.954925E-07    5.089863E-05    4.277684E-03    9.502454E-02    0.353864        0.537336    
         0.618674        0.555049        0.427609        0.256323        0.113262        3.196141E-02    4.891375E-03    4.539312E-04    5.407782E-05    1.778559E-05
         5.291812E-06    1.214251E-06    2.262742E-07    4.331276E-08    7.090867E-09    1.151327E-09    2.432040E-10    3.621304E-11    2.673174E-12    2.035497E-13
         8.026793E-15    1.821756E-16    2.588807E-18    2.399002E-20    1.533627E-22    7.059766E-25    2.396206E-27    5.973138E-30    1.038353E-32    1.063690E-35
   5     5.240735E-40    7.691361E-37    6.312591E-34    3.489083E-31    1.399501E-28    4.190799E-26    9.406365E-24    1.575981E-21    1.997129E-19    2.028204E-17
         8.322058E-15    2.910046E-12    7.145971E-10    1.140793E-07    1.305747E-05    1.026666E-03    3.441814E-02    0.287046        0.632376        0.792340    
         0.840592        0.849651        0.714128        0.472795        0.223831        5.627629E-02    4.853925E-03    6.726582E-04    3.825772E-03    2.058468E-03
         3.646543E-04    4.313518E-05    5.754344E-06    1.081701E-06    1.574603E-07    2.791430E-08    7.323879E-09    1.227302E-09    1.260406E-10    7.550677E-12
         2.566081E-13    4.957161E-15    5.611139E-17    3.935415E-19    1.774760E-21    5.443529E-24    1.188493E-26    1.892463E-29    2.160094E-32    1.557968E-35
   6     4.843834E-38    5.013140E-35    3.236094E-32    1.518575E-29    5.431603E-27    1.490564E-24    3.056985E-22    4.405533E-20    4.139000E-18    1.403402E-15
         6.115259E-13    1.940974E-10    3.840293E-08    4.522724E-06    3.185928E-04    1.112076E-02    0.152243        0.549725        0.832014        0.926109    
         0.949136        0.954177        0.896019        0.703469        0.405626        9.559343E-02    1.327049E-02    1.201425E-02    0.189831        8.344419E-02
         1.005698E-02    9.636741E-04    1.278851E-04    2.398412E-05    2.665610E-06    7.349964E-07    1.645050E-07    2.615667E-08    2.648964E-09    1.568093E-10
         5.127386E-12    9.036031E-14    8.625827E-16    4.655959E-18    1.469914E-20    2.902045E-23    3.848366E-26    3.656933E-29    2.581101E-32    1.281934E-35
   7     1.942401E-35    1.668400E-32    8.621175E-30    3.179667E-27    8.790302E-25    1.819125E-22    2.740225E-20    2.900162E-18    3.336302E-16    9.612773E-14
         3.299003E-11    7.787446E-09    1.061184E-06    8.059947E-05    3.331606E-03    6.495517E-02    0.370841        0.769226        0.934979        0.977089    
         0.986587        0.988469        0.980488        0.896162        0.645623        0.197232        0.112353        0.459082        0.669505        0.457631    
         0.148197        2.162502E-02    2.759182E-03    4.513363E-04    4.641083E-05    1.246537E-05    2.721489E-06    4.292669E-07    4.378013E-08    2.608416E-09
         8.374045E-11    1.374824E-12    1.126804E-14    4.648892E-17    9.827751E-20    1.110151E-22    7.356649E-26    3.294982E-29    1.179044E-32    3.707870E-36
   8     8.353386E-33    7.351073E-30    3.808871E-27    1.375585E-24    3.606761E-22    6.630840E-20    7.296049E-18    8.700388E-16    8.443162E-14    7.958695E-12
         1.546496E-09    2.532723E-07    2.340729E-05    1.113167E-03    2.479804E-02    0.210696        0.617497        0.897868        0.977714        0.993737    
         0.996919        0.997529        0.997202        0.981718        0.855174        0.360056        0.621546        0.932339        0.917447        0.806336    
         0.533793        0.179373        3.600457E-02    6.334237E-03    6.516676E-04    1.681877E-04    3.560262E-05    5.559519E-06    5.721219E-07    3.452569E-08
         1.098679E-09    1.694193E-11    1.186235E-13    3.552821E-16    4.219262E-19    1.658810E-22    3.294578E-26    5.704000E-30    1.010327E-33    2.162249E-37
   9     2.319399E-30    2.084768E-27    1.106305E-24    4.128956E-22    1.154393E-19    2.470943E-17    4.065366E-15    3.941601E-13    2.439314E-11    8.480678E-10
         5.948883E-08    6.060201E-06    3.659462E-04    1.003906E-02    0.109824        0.449518        0.818535        0.959859        0.992858        0.998425    
         0.999369        0.999544        0.999583        0.998256        0.981923        0.812451        0.963725        0.992703        0.984388        0.948776    
         0.829882        0.539242        0.210839        5.393704E-02    6.649279E-03    1.674729E-03    3.467104E-04    5.395743E-05    5.638000E-06    3.468017E-07
         1.098880E-08    1.584420E-10    9.124903E-13    1.697685E-15    7.290869E-19    2.124168E-22    4.690300E-26    8.683490E-30    1.505581E-33    2.834106E-37
  10     2.464373E-28    1.748985E-25    7.219118E-23    2.096523E-20    4.584282E-18    7.688242E-16    5.822149E-13    5.331539E-11    2.940363E-09    1.026997E-07
         2.002551E-06    9.708284E-05    3.761630E-03    5.617813E-02    0.302176        0.693191        0.921249        0.986102        0.997760        0.999607    
         0.999878        0.999919        0.999908        0.999784        0.999034        0.992718        0.998341        0.999061        0.997025        0.987880    
         0.948135        0.815302        0.515274        0.214984        4.129071E-02    1.067608E-02    2.247610E-03    3.593010E-04    3.888398E-05    2.460939E-06
         7.738673E-08    1.013007E-09    4.258036E-12    3.343692E-15    1.647691E-18    5.793065E-22    1.593115E-25    3.591364E-29    7.011534E-33    1.377706E-36
  11     1.096497E-26    4.825576E-24    1.146418E-21    1.861675E-19    2.413841E-17    1.755580E-14    9.565864E-12    3.348680E-09    1.466812E-07    4.361892E-06
         7.957414E-05    8.611444E-04    2.016974E-02    0.168970        0.524020        0.843400        0.967207        0.994803        0.999294        0.999892    
         0.999975        0.999984        0.999975        0.999944        0.999808        0.999081        0.999794        0.999835        0.999372        0.996892    
         0.984259        0.932472        0.758330        0.453352        0.175253        3.175125E-02    8.100866E-03    1.475654E-03    1.734079E-04    1.139305E-05
         3.453394E-07    3.731042E-09    6.553615E-12    6.007636E-15    3.744664E-18    1.808725E-21    7.145219E-25    2.256471E-28    5.489729E-32    1.181783E-35
  12     8.491812E-25    3.665538E-22    9.032632E-20    1.528044E-17    1.912759E-15    1.010495E-12    3.647953E-10    8.081767E-08    2.712082E-06    6.295920E-05
         9.232549E-04    8.384086E-03    4.896315E-02    0.311969        0.693082        0.920030        0.986160        0.997917        0.999728        0.999965    
         0.999993        0.999996        0.999994        0.999988        0.999968        0.999897        0.999973        0.999961        0.999812        0.998964    
         0.994855        0.973535        0.886236        0.660516        0.274037        9.605089E-02    2.549140E-02    4.750971E-03    5.562273E-04    3.537685E-05
         8.949888E-07    4.760145E-09    8.814256E-12    1.047038E-14    9.426362E-18    7.201642E-21    4.673291E-24    2.370233E-27    8.109399E-31    2.039252E-34
  13     3.302876E-23    1.049000E-20    1.850791E-18    2.252194E-16    1.401192E-13    6.465504E-11    1.819039E-08    6.669683E-07    1.775100E-05    3.167326E-04
         3.637771E-03    2.631528E-02    0.121533        0.377104        0.788300        0.954519        0.992845        0.998984        0.999869        0.999984    
         0.999998        0.999999        0.999999        0.999998        0.999995        0.999989        0.999995        0.999984        0.999907        0.999496    
         0.997577        0.987277        0.942030        0.791839        0.411413        0.173549        5.228722E-02    9.496106E-03    9.515183E-04    4.046751E-05
         4.205141E-07    1.997206E-09    5.005053E-12    8.867947E-15    1.312073E-17    1.720790E-20    1.928219E-23    1.674641E-26    9.206682E-30    3.164066E-33
  14     1.593974E-21    5.413806E-19    9.831860E-17    1.158640E-14    9.689321E-13    3.783739E-10    8.541290E-08    2.518665E-06    5.376293E-05    7.768283E-04
         7.375250E-03    4.520023E-02    0.178952        0.462069        0.803554        0.970086        0.995941        0.999468        0.999930        0.999991    
         0.999999         1.00000         1.00000         1.00000        0.999999        0.999999        0.999998        0.999989        0.999935        0.999696    
         0.998340        0.992077        0.965716        0.866156        0.524953        0.223668        5.109594E-02    6.716605E-03    5.494055E-04    1.922380E-05
         1.896034E-07    1.085397E-09    4.348665E-12    1.365117E-14    3.661133E-17    8.510816E-20    1.623146E-22    2.372551E-25    2.274964E-28    1.365948E-31
  15     2.867609E-21    9.691377E-19    2.002247E-16    2.944527E-14    3.247595E-12    3.191560E-10    3.404092E-08    1.613584E-06    4.144808E-05    6.468781E-04
         6.343919E-03    3.976108E-02    0.161948        0.435875        0.785087        0.962785        0.997345        0.999713        0.999958        0.999993    
         0.999999         1.00000         1.00000         1.00000         1.00000         1.00000        0.999999        0.999992        0.999948        0.999641    
         0.998143        0.992735        0.974756        0.907018        0.583451        0.175652        3.562137E-02    3.781435E-03    2.495977E-04    8.625102E-06
         1.563927E-07    1.745537E-09    1.406282E-11    8.766589E-14    4.353736E-16    1.731221E-18    5.453124E-21    1.325324E-23    2.821738E-26    4.957576E-29
  16     3.002470E-22    5.778222E-20    5.371400E-18    6.748075E-16    1.226528E-13    2.265707E-11    3.445977E-09    3.050020E-07    1.306032E-05    2.862296E-04
         3.445823E-03    2.452522E-02    0.110371        0.348971        0.698923        0.914944        0.992765        0.999584        0.999938        0.999990    
         0.999998         1.00000         1.00000         1.00000         1.00000         1.00000        0.999999        0.999993        0.999935        0.999536    
         0.997535        0.990813        0.975976        0.930230        0.528819        0.111128        2.264141E-02    3.076554E-03    2.704502E-04    1.422278E-05
         4.798180E-07    1.105864E-08    1.821432E-10    2.136377E-12    1.828167E-14    1.198275E-16    6.238016E-19    2.465398E-21    6.430580E-24    1.021700E-26
  17     2.343676E-22    4.646229E-20    4.568244E-18    3.346232E-16    3.033484E-14    3.539581E-12    4.591490E-10    4.570621E-08    2.682313E-06    8.072443E-05
         1.251666E-03    1.068746E-02    5.560247E-02    0.226184        0.502711        0.683245        0.913477        0.999384        0.999891        0.999983    
         0.999997         1.00000         1.00000         1.00000         1.00000         1.00000        0.999999        0.999992        0.999906        0.999231    
         0.995421        0.980417        0.940271        0.845459        0.312536        3.100204E-02    6.432780E-03    1.062093E-03    1.279995E-04    1.072174E-05
         6.595683E-07    2.919757E-08    8.962512E-10    1.865102E-11    2.634192E-13    2.563096E-15    1.727916E-17    7.926003E-20    2.032200E-22    2.770091E-25
  18     1.128005E-20    2.849125E-18    3.907410E-16    3.524940E-14    2.172147E-12    9.311390E-11    2.775919E-09    5.661106E-08    1.259235E-06    2.553576E-05
         3.779372E-04    3.527436E-03    2.071199E-02    9.568770E-02    0.165865        0.661255        0.988031        0.998793        0.999791        0.999964    
         0.999992        0.999997        0.999998        0.999999        0.999999        0.999999        0.999994        0.999960        0.999701        0.997946    
         0.988203        0.948172        0.837605        0.612523        8.018264E-02    2.791506E-03    3.349506E-04    4.433047E-05    5.170521E-06    4.783459E-07
         3.353114E-08    1.721806E-09    6.261477E-11    1.566713E-12    2.668891E-14    3.099967E-16    2.510036E-18    1.315478E-20    3.624097E-23    5.308841E-26
  19     1.892033E-19    5.019439E-17    7.048466E-15    6.321721E-13    3.787050E-11    1.551995E-09    4.389223E-08    8.641124E-07    1.213672E-05    1.261984E-04
         1.012451E-03    6.428753E-03    3.269940E-02    0.267488        0.732809        0.928046        0.984886        0.997145        0.999447        0.999880    
         0.999960        0.999979        0.999985        0.999989        0.999991        0.999988        0.999944        0.999666        0.998061        0.989487    
         0.953195        0.838935        0.606459        0.318507        4.116965E-02    6.635721E-04    3.071062E-05    2.364229E-06    2.067776E-07    1.715468E-08
         1.208239E-09    6.644952E-11    2.676326E-12    7.573706E-14    1.472731E-15    1.990748E-17    1.903886E-19    1.124174E-21    3.443398E-24    5.777583E-27
  20     9.151514E-19    2.677868E-16    4.032364E-14    3.679632E-12    2.179426E-10    8.600933E-09    2.283657E-07    4.110829E-06    5.130772E-05    4.609486E-04
         3.123117E-03    1.670990E-02    7.260028E-02    0.382195        0.718604        0.894568        0.966079        0.991268        0.997730        0.999275    
         0.999691        0.999825        0.999880        0.999905        0.999914        0.999861        0.999471        0.997308        0.986181        0.940978    
         0.800890        0.523875        0.228692        6.729568E-02    9.939544E-03    1.810014E-04    3.147256E-06    1.441781E-07    1.011105E-08    7.709219E-10
         5.311144E-11    2.970509E-12    1.253513E-13    3.836329E-15    8.338861E-17    1.395964E-18    1.533595E-20    1.036149E-22    3.635643E-25    7.189571E-28
  21     7.492594E-20    1.248686E-17    2.536857E-15    6.025624E-13    9.501048E-11    6.676091E-09    2.267292E-07    4.472535E-06    5.655237E-05    4.892413E-04
         3.101444E-03    1.546484E-02    6.172224E-02    0.246106        0.477256        0.696965        0.864861        0.948229        0.981646        0.993202    
         0.997111        0.998514        0.999131        0.999479        0.999374        0.998801        0.995732        0.981202        0.917791        0.721455    
         0.376660        0.101880        1.750818E-02    3.324878E-03    6.751655E-04    2.708988E-05    7.709972E-07    1.115765E-08    5.195124E-10    3.620756E-11
         2.449722E-12    1.377711E-13    6.003178E-15    1.957699E-16    5.486856E-18    1.051382E-19    1.343716E-21    1.064862E-23    4.435040E-26    1.064439E-28
  22     5.444005E-21    7.734400E-19    4.219564E-17    1.575268E-14    5.131959E-12    7.880317E-10    5.245564E-08    1.627831E-06    2.687826E-05    2.671015E-04
         1.777752E-03    8.603777E-03    3.172210E-02    9.631447E-02    0.180476        0.303205        0.492962        0.704479        0.857888        0.938684    
         0.976792        0.989071        0.994110        0.996401        0.996927        0.993230        0.972463        0.901314        0.649059        0.247102    
         3.118081E-02    2.157049E-03    2.922800E-04    7.320837E-05    2.158936E-05    1.563356E-06    1.156599E-07    2.924058E-09    3.396506E-11    1.666392E-12
         1.082963E-13    6.121356E-15    2.750306E-16    1.134947E-17    3.602578E-19    7.926204E-21    1.190244E-22    1.128711E-24    5.728719E-27    1.704371E-29
  23     4.385628E-22    7.536151E-20    5.761205E-18    1.211904E-15    4.105292E-13    7.529100E-11    6.894718E-09    3.044734E-07    6.705244E-06    8.037506E-05
         5.836441E-04    2.812725E-03    9.489093E-03    2.324044E-02    4.609795E-02    5.919804E-02    0.101548        0.201297        0.413106        0.659989    
         0.845946        0.924163        0.959428        0.976910        0.986065        0.974329        0.878586        0.639580        0.237447        2.182749E-02
         2.360396E-04    2.220988E-05    4.949007E-06    1.463562E-06    4.746237E-07    6.656313E-08    6.713832E-09    3.621086E-10    7.244044E-12    8.353632E-14
         4.336104E-15    2.445372E-16    1.342966E-17    6.367216E-19    2.173972E-20    5.427285E-22    9.560151E-24    1.091901E-25    6.842109E-28    2.575511E-30
  24     6.141792E-23    2.123762E-20    3.313836E-18    4.968475E-16    9.528287E-14    1.298438E-11    1.066999E-09    4.907413E-08    1.210688E-06    1.623642E-05
         1.248666E-04    5.859002E-04    1.735526E-03    3.295757E-03    5.395568E-03    7.788390E-03    7.518543E-03    1.199269E-02    3.413536E-02    0.149870    
         0.390318        0.621009        0.781742        0.877898        0.937152        0.917179        0.676468        0.297114        3.437717E-02    2.726679E-03
         9.420672E-04    2.308213E-04    3.034961E-05    2.233534E-06    1.103346E-07    4.722560E-09    2.365629E-10    1.152191E-11    3.565561E-13    6.177554E-15
         1.612825E-16    1.003861E-17    6.171903E-19    3.010736E-20    1.124918E-21    3.180950E-23    6.559826E-25    9.126363E-27    7.571420E-29    5.861817E-31
  25     1.223862E-23    6.654980E-21    1.334789E-18    1.282540E-16    2.070597E-14    2.343429E-12    1.693332E-10    7.280752E-09    1.796626E-07    2.477255E-06
         1.914074E-05    8.412801E-05    2.097081E-04    2.951225E-04    3.403975E-04    3.163762E-04    3.085752E-04    6.407046E-05    4.361751E-04    3.798205E-03
         2.832907E-02    0.120162        0.289588        0.495592        0.775251        0.769552        0.400666        0.125296        8.828704E-02    6.588754E-02
         2.511681E-02    5.756223E-03    8.591629E-04    7.216745E-05    3.468486E-06    1.100844E-07    2.486290E-09    4.149928E-11    5.010820E-13    4.045719E-15
         3.945679E-17    1.331194E-18    5.377857E-20    2.353379E-21    9.308860E-23    3.174104E-24    9.271870E-26    2.374698E-27    5.875732E-29    2.125130E-30
  26     2.112499E-24    1.581850E-21    3.310645E-19    2.534456E-17    3.084703E-15    3.179781E-13    2.141651E-11    8.858682E-10    2.134658E-08    2.922647E-07
         2.199434E-06    8.850827E-06    1.836496E-05    1.922339E-05    1.516224E-05    7.792492E-06    1.129279E-05    2.317598E-05    9.646728E-04    1.014839E-02
         3.848429E-02    0.100235        0.189893        0.356051        0.526053        0.750625        0.681766        0.655761        0.560611        0.382749    
         0.188036        6.377552E-02    1.403714E-02    1.597104E-03    9.052463E-05    3.071202E-06    7.023920E-08    1.159766E-09    1.408814E-11    1.181231E-13
         6.082641E-16    7.385877E-18    1.747519E-19    5.201851E-21    1.671668E-22    5.833933E-24    2.174812E-25    8.142006E-27    2.934174E-28    1.270898E-29
  27     2.956039E-25    2.084826E-22    7.131017E-20    5.926219E-18    3.228163E-16    3.050796E-14    1.922376E-12    7.869870E-11    1.917467E-09    2.622461E-08
         1.921149E-07    7.122455E-07    1.278965E-06    1.097462E-06    6.555147E-07    2.987193E-06    6.487256E-05    1.413460E-03    2.353197E-02    0.114859    
         0.273046        0.481129        0.691015        0.846501        0.932075        0.978964        0.964575        0.931130        0.862868        0.737653    
         0.531746        0.298531        0.114253        2.232002E-02    1.821729E-03    7.378431E-05    1.868094E-06    3.153956E-08    3.790462E-10    3.202627E-12
         1.686289E-14    6.925820E-17    1.286983E-18    2.679464E-20    6.450680E-22    2.042646E-23    8.112378E-25    3.412287E-26    1.373930E-27    6.178604E-29
  28     3.304393E-26    2.093224E-23    7.054120E-21    8.948106E-19    4.130380E-17    2.092378E-15    1.256007E-13    5.113786E-12    1.307365E-10    1.809904E-09
         1.262323E-08    4.325636E-08    7.175758E-08    7.415155E-08    7.083383E-07    5.042870E-05    2.448535E-03    2.916272E-02    0.177024        0.435057    
         0.650891        0.807729        0.913681        0.969807        0.988282        0.994849        0.991526        0.983042        0.964070        0.922158    
         0.825630        0.661569        0.417961        0.157456        2.405081E-02    1.466696E-03    4.442718E-05    8.421825E-07    1.100537E-08    1.002418E-10
         5.994630E-13    2.030368E-15    1.411376E-17    1.842170E-19    2.909156E-21    8.090460E-23    3.255521E-24    1.388151E-25    5.662354E-27    2.492242E-28
  29     1.510428E-25    2.880410E-23    3.164776E-21    2.243394E-19    9.904403E-18    2.461473E-16    9.768057E-15    3.273075E-13    7.100893E-12    8.241863E-11
         4.684771E-10    2.114363E-09    1.372395E-08    2.030505E-07    6.078193E-06    4.843932E-04    2.990573E-02    0.205227        0.520549        0.759557    
         0.892724        0.952185        0.981458        0.994233        0.998022        0.998894        0.998109        0.996345        0.992405        0.982810    
         0.957249        0.902805        0.773763        0.492848        0.166085        2.035194E-02    9.106526E-04    2.074749E-05    3.004182E-07    2.997070E-09
         2.031739E-11    8.136970E-14    2.002074E-16    1.765913E-18    1.591008E-20    3.796836E-22    1.420866E-23    5.515798E-25    2.103276E-26    8.639465E-28
  30     1.378305E-23    1.788974E-21    1.156687E-19    3.705028E-18    7.978821E-17    1.539304E-15    2.597647E-14    3.780428E-13    5.158827E-12    6.366920E-11
         7.557865E-10    9.186606E-09    1.239825E-07    1.965010E-06    4.149209E-05    1.675025E-03    0.105176        0.563299        0.823312        0.933631    
         0.974804        0.991132        0.996884        0.999055        0.999681        0.999798        0.999638        0.999331        0.998688        0.997031    
         0.993032        0.983440        0.948650        0.839099        0.541234        0.155545        1.341653E-02    4.119813E-04    6.836193E-06    7.516128E-08
         5.778210E-10    2.886639E-12    7.214457E-15    2.314017E-17    1.078581E-19    2.147043E-21    6.669424E-23    2.143543E-24    7.180222E-26    2.653618E-27
  31     3.849020E-21    2.978266E-19    1.068561E-17    1.924592E-16    3.320481E-15    4.621682E-14    5.683282E-13    6.510166E-12    7.121648E-11    7.579165E-10
         8.013594E-09    8.635712E-08    9.759388E-07    1.202904E-05    1.749443E-04    3.788741E-03    0.206283        0.811554        0.952798        0.985760    
         0.995326        0.998475        0.999520        0.999860        0.999951        0.999973        0.999940        0.999888        0.999792        0.999589    
         0.999202        0.998092        0.994787        0.981936        0.909502        0.556000        0.103680        4.638649E-03    8.779855E-05    1.071487E-06
         9.408715E-09    5.820620E-11    2.055797E-13    3.094360E-16    8.391207E-19    1.434919E-20    3.301985E-22    8.118494E-24    2.279031E-25    7.386263E-27
  32     1.069195E-19    7.729789E-18    2.721668E-16    5.618263E-15    7.762866E-14    8.409965E-13    7.994031E-12    7.283309E-11    6.746114E-10    6.401403E-09
         6.070490E-08    5.784246E-07    5.589516E-06    5.552911E-05    5.856779E-04    7.426762E-03    0.262850        0.905111        0.981273        0.994642    
         0.998405        0.999573        0.999895        0.999971        0.999989        0.999996        0.999988        0.999976        0.999955        0.999920    
         0.999869        0.999765        0.999410        0.997494        0.979741        0.596264        5.785398E-02    1.461343E-03    2.555264E-05    3.513329E-07
         3.771622E-09    3.058543E-11    1.672609E-13    4.540111E-16    5.016477E-18    1.105498E-19    1.690088E-21    2.964299E-23    6.741703E-25    1.889809E-26
  33     1.121499E-19    8.690037E-18    3.900563E-16    9.962068E-15    1.787263E-13    2.567988E-12    3.156388E-11    3.485262E-10    3.567882E-09    3.462948E-08
         3.240463E-07    2.950914E-06    2.613626E-05    2.233357E-04    1.805690E-03    1.339780E-02    0.325189        0.915745        0.971930        0.990713    
         0.997309        0.999367        0.999882        0.999982        0.999996        0.999999        0.999996        0.999988        0.999974        0.999949    
         0.999913        0.999825        0.999358        0.996313        0.959677        0.629584        9.339266E-02    3.229533E-03    6.114838E-05    9.930970E-07
         1.335182E-08    1.409288E-10    1.111911E-12    5.735206E-15    4.832130E-17    9.914883E-19    8.689149E-21    1.017470E-22    1.845134E-24    4.477836E-26
  34     9.851583E-21    7.602398E-19    2.840489E-17    7.654969E-16    1.628321E-14    2.970596E-13    4.765233E-12    6.774364E-11    8.657258E-10    1.010424E-08
         1.089630E-07    1.075465E-06    9.856471E-06    8.601432E-05    7.550154E-04    7.651225E-03    0.276746        0.833339        0.932405        0.976650    
         0.993449        0.998557        0.999740        0.999947        0.999984        0.999995        0.999986        0.999972        0.999946        0.999912    
         0.999861        0.999754        0.999319        0.997207        0.984034        0.744537        0.211042        3.551676E-02    1.425456E-03    2.997888E-05
         4.561136E-07    5.297383E-09    4.667281E-11    2.781798E-13    7.764766E-16    8.428277E-18    4.147169E-20    3.096233E-22    4.594127E-24    9.862459E-26
  35     7.759823E-22    6.067492E-20    2.298585E-18    4.436943E-17    8.377587E-16    1.280576E-14    1.734353E-13    2.264972E-12    3.002865E-11    3.975244E-10
         5.188988E-09    6.746106E-08    8.938315E-07    1.245118E-05    1.983299E-04    5.579334E-03    0.213146        0.596328        0.803175        0.925311    
         0.978577        0.995499        0.999271        0.999858        0.999955        0.999980        0.999964        0.999935        0.999894        0.999841    
         0.999761        0.999525        0.998224        0.990217        0.944430        0.705490        0.229072        2.061144E-02    6.878535E-04    1.381930E-05
         2.027538E-07    2.295715E-09    2.039350E-11    1.362576E-13    5.087022E-16    7.766706E-18    7.748752E-20    7.238935E-22    1.024570E-23    1.937521E-25
  36     6.056650E-23    4.751410E-21    1.830014E-19    3.490093E-18    4.360682E-17    5.206664E-16    4.823865E-15    4.086031E-14    3.893342E-13    4.551207E-12
         6.030375E-11    8.662644E-10    1.377120E-08    2.593218E-07    7.409173E-06    7.904918E-04    3.451766E-02    0.164054        0.432812        0.724633    
         0.908289        0.979262        0.996272        0.999469        0.999898        0.999946        0.999936        0.999888        0.999855        0.999786    
         0.999602        0.998757        0.993476        0.957881        0.814003        0.431890        7.696764E-02    4.060523E-03    1.014286E-04    1.717541E-06
         2.230349E-08    2.328909E-10    1.996775E-12    1.399933E-14    7.146912E-17    1.659524E-18    3.150307E-20    5.586600E-22    1.107520E-23    2.216852E-25
  37     4.730388E-24    3.679207E-22    1.437902E-20    2.747485E-19    3.126976E-18    2.428024E-17    1.452052E-16    6.927380E-16    3.590411E-15    2.733447E-14
         3.085458E-13    4.539942E-12    8.460392E-11    2.194619E-09    1.431914E-07    2.460008E-05    6.549586E-04    3.886600E-03    2.868250E-02    0.169052    
         0.516303        0.846065        0.974135        0.997545        0.999783        0.999914        0.999904        0.999858        0.999829        0.999709    
         0.998700        0.988658        0.922898        0.678393        0.261079        3.583189E-02    1.934280E-03    5.829352E-05    1.207827E-06    1.909703E-08
         2.434366E-10    2.568417E-12    2.264565E-14    1.726720E-16    5.750156E-18    1.869065E-19    5.695169E-21    1.654569E-22    4.744919E-24    1.158017E-25
  38     3.641017E-25    2.790835E-23    1.099296E-21    2.097476E-20    2.180352E-19    1.359546E-18    5.293839E-18    1.303169E-17    3.303447E-17    1.313302E-16
         1.024251E-15    1.387366E-14    2.965700E-13    1.057817E-11    1.060223E-09    1.140959E-07    2.301546E-06    1.698911E-05    2.958826E-04    6.799018E-03
         9.725410E-02    0.486810        0.885210        0.991509        0.999492        0.999864        0.999884        0.999841        0.999801        0.999502    
         0.994765        0.940135        0.665664        0.209141        2.107816E-02    8.757387E-04    2.300517E-05    4.720890E-07    8.013705E-09    1.150977E-10
         1.410067E-12    1.489473E-14    1.381888E-16    5.516858E-18    2.405673E-19    1.176485E-20    5.839680E-22    2.730546E-23    1.135895E-24    3.481965E-26
  39     2.187835E-26    1.901244E-24    7.944238E-23    1.519675E-21    1.436937E-20    7.128294E-20    1.834920E-19    2.627235E-19    3.271426E-19    6.366660E-19
         2.866761E-18    3.055121E-17    6.306680E-16    1.999884E-14    1.426721E-12    1.032992E-10    2.276488E-09    3.599807E-08    1.879653E-06    1.256003E-04
         6.766059E-03    0.139391        0.666943        0.973321        0.998178        0.999592        0.999854        0.999806        0.999692        0.998748    
         0.980958        0.810211        0.317552        3.403581E-02    9.894181E-04    1.706277E-05    2.475306E-07    3.346968E-09    4.312678E-11    5.227976E-13
         5.911631E-15    6.594648E-17    3.842340E-18    1.780955E-19    9.122864E-21    5.805039E-22    4.291426E-23    3.070993E-24    1.811776E-25    6.951691E-27
  40    -2.426529E-26   -5.318939E-25   -5.227953E-25    8.243477E-23    8.515257E-22    3.424439E-21    5.945063E-21    5.007503E-21    3.160438E-21    3.023224E-21
         7.259060E-21    4.918440E-20    6.389093E-19    1.027314E-17    5.102771E-16    4.683184E-14    2.088937E-12    8.797536E-11    1.294322E-08    2.069065E-06
         2.727874E-04    1.916916E-02    0.330275        0.916308        0.990076        0.997606        0.999725        0.999657        0.999207        0.996022    
         0.941727        0.593288        0.114553        5.364973E-03    9.435229E-05    1.033361E-06    7.219631E-09    4.810101E-11    3.384353E-13    2.707630E-15
         2.973794E-17    1.958271E-18    1.119544E-19    5.152969E-21    2.836527E-22    2.260128E-23    2.402775E-24    2.540360E-25    2.070674E-26    9.807207E-28
  41    -1.183737E-25   -2.748547E-24   -2.466829E-23   -9.783824E-23   -1.643545E-22   -6.423738E-23    7.650637E-23    6.874281E-23    2.801520E-23    1.383227E-23
         1.614765E-23    5.169460E-23    2.648860E-22    6.283848E-21    5.196021E-19    2.694408E-17    2.818612E-15    4.890395E-13    1.542744E-10    4.417966E-08
         1.028520E-05    1.506352E-03    9.971583E-02    0.740790        0.931659        0.969028        0.998558        0.998931        0.997210        0.987076    
         0.854021        0.360505        3.840618E-02    1.224825E-03    1.887862E-05    1.964738E-07    1.618427E-09    6.483044E-12    2.394439E-14    9.349032E-17
         2.545205E-18    9.253504E-20    3.521859E-21    1.503445E-22    8.841361E-24    8.344039E-25    1.174119E-25    1.722770E-26    1.849324E-27    1.038931E-28
  42    -4.473107E-25   -9.457447E-24   -7.929757E-23   -3.132970E-22   -6.091588E-22   -5.432559E-22   -1.420706E-22    7.140004E-23    5.111794E-23    1.260792E-23
         1.813081E-24    1.964064E-25    3.772210E-25    4.869925E-23    5.611305E-21    4.253573E-19    2.767155E-17    1.202353E-14    5.128117E-12    1.867308E-09
         5.611170E-07    1.222848E-04    1.711553E-02    0.353573        0.433092        0.844454        0.989165        0.995576        0.990200        0.961421    
         0.704064        0.189222        1.365016E-02    3.790883E-04    5.992039E-06    6.884127E-08    6.628985E-10    6.054327E-12    1.851929E-14    5.557447E-17
         1.056736E-18    2.534786E-20    7.743826E-22    3.080328E-23    1.712977E-24    1.741190E-25    3.195673E-26    5.433994E-27    5.518201E-28    2.452102E-29
  43    -1.430893E-24   -2.815803E-23   -2.169265E-22   -7.544325E-22   -1.009776E-21    6.601064E-22    3.655274E-21    4.508886E-21    2.761960E-21    1.017079E-21
         2.684710E-22    5.286317E-23    6.786918E-24    3.673097E-24    3.923656E-22    3.804558E-20    2.712883E-18    4.726842E-16    2.231875E-13    9.046656E-11
         3.066676E-08    8.046383E-06    1.454250E-03    5.919756E-02    6.851499E-02    0.726858        0.958837        0.982227        0.969283        0.899684    
         0.510783        9.162810E-02    5.330129E-03    1.454252E-04    2.473927E-06    3.116246E-08    3.232510E-10    2.977681E-12    8.208624E-15    2.448517E-17
         5.096123E-19    1.409356E-20    5.100002E-22    2.696075E-23    3.378707E-24    8.569545E-25    1.933967E-25    2.842978E-26    2.310365E-27    7.935817E-29
  44    -3.839683E-24   -7.111901E-23   -4.830864E-22   -1.105516E-21    2.225638E-21    1.895660E-20    4.920553E-20    7.065854E-20    6.410880E-20    4.114508E-20
         2.153411E-20    9.812322E-21    4.299015E-21    1.108178E-21    2.761635E-22    7.827240E-21    5.171305E-19    3.468868E-17    1.215991E-14    4.422686E-12
         1.430298E-09    3.763462E-07    6.724217E-05    3.801830E-03    2.983690E-02    0.431681        0.861819        0.939462        0.916430        0.778538    
         0.321336        4.226218E-02    2.195482E-03    6.068827E-05    1.079862E-06    1.383085E-08    1.372395E-10    1.117277E-12    3.196636E-15    1.201033E-17
         3.385678E-19    1.279753E-20    7.390482E-22    1.085873E-22    3.061681E-23    7.879961E-24    1.447321E-24    1.721967E-25    1.164034E-26    3.452933E-28
  45    -8.407783E-24   -1.444618E-22   -7.222174E-22    1.506781E-21    3.010243E-20    1.440172E-19    3.900637E-19    7.020058E-19    9.145946E-19    9.729707E-19
         9.145081E-19    9.037313E-19    1.053970E-18    1.002627E-18    6.433150E-19    2.989308E-19    8.520955E-19    1.786883E-17    3.499647E-15    6.004688E-13
         1.171483E-10    2.241760E-08    3.482738E-06    3.279771E-04    1.128011E-02    0.190096        0.664128        0.833546        0.804443        0.591198    
         0.173899        1.814076E-02    8.721637E-04    2.401331E-05    4.313420E-07    5.569403E-09    5.761385E-11    5.597299E-13    2.198156E-15    1.255247E-17
         5.514149E-19    3.652385E-20    4.915707E-21    1.217304E-21    3.173112E-22    6.582612E-23    9.795028E-24    9.634818E-25    5.500916E-26    1.417662E-27
  46    -1.437780E-23   -2.107385E-22    1.714847E-23    1.891888E-20    1.667167E-19    7.633322E-19    2.292773E-18    5.027659E-18    8.742329E-18    1.444824E-17
         2.040833E-17    4.372642E-17    1.081315E-16    2.431656E-16    4.554554E-16    6.313920E-16    5.550735E-16    1.734377E-15    5.575199E-14    7.699725E-12
         1.251352E-09    1.735393E-07    4.418978E-06    1.636251E-04    4.627278E-03    7.552873E-02    0.402168        0.639586        0.615061        0.368468    
         7.816071E-02    6.736985E-03    3.011596E-04    8.293263E-06    1.608508E-07    2.564238E-09    4.241152E-11    2.637238E-13    1.728104E-15    1.975686E-17
         1.747574E-18    2.416102E-19    5.103019E-20    1.243259E-20    2.721183E-21    4.694764E-22    5.888849E-23    4.946537E-24    2.442431E-25    5.550127E-27
  47    -1.798638E-23   -1.478273E-22    4.221064E-21    8.222333E-20    6.536363E-19    3.132915E-18    1.050022E-17    2.694684E-17    5.708098E-17    1.569789E-16
         7.541658E-16    3.331897E-15    1.242857E-14    3.957745E-14    1.083244E-13    2.542597E-13    5.223589E-13    1.134309E-12    5.757388E-12    8.151387E-11
         2.293293E-09    8.261644E-08    3.043293E-06    1.028195E-04    2.681733E-03    2.912044E-02    0.183751        0.389389        0.371848        0.172979    
         2.669439E-02    1.933166E-03    8.228942E-05    2.484521E-06    6.443496E-08    1.856112E-09    2.275969E-11    2.736330E-13    3.512504E-15    6.874637E-17
         9.930948E-18    1.988191E-18    4.509399E-19    9.950898E-20    1.895549E-20    2.851048E-21    3.142042E-22    2.335208E-23    1.027170E-24    2.105087E-26
  48    -1.469022E-23    1.743662E-22    1.462870E-20    2.344826E-19    1.914652E-18    9.933400E-18    3.684163E-17    1.043576E-16    5.751652E-16    4.788820E-15
         3.183235E-14    1.732213E-13    7.923060E-13    3.130894E-12    1.091606E-11    3.448841E-11    1.039194E-10    3.317999E-10    1.352166E-09    8.563698E-09
         7.748946E-08    8.695890E-07    1.077790E-05    1.329168E-04    1.468555E-03    1.265724E-02    6.487302E-02    0.169825        0.152372        5.491837E-02
         5.997938E-03    3.724455E-04    1.628210E-05    6.360676E-07    2.809019E-08    7.369130E-10    1.838479E-11    4.663752E-13    1.323202E-14    4.626178E-16
         5.304324E-17    1.278638E-17    2.899496E-18    6.011647E-19    1.055383E-19    1.457437E-20    1.475811E-21    1.010029E-22    4.100311E-24    7.806143E-26
  49    -5.553542E-24    6.244034E-22    2.788625E-20    4.512611E-19    3.989284E-18    2.258702E-17    9.026126E-17    8.423800E-16    1.089490E-14    1.074748E-13
         8.324012E-13    5.230993E-12    2.768833E-11    1.270183E-10    5.192621E-10    1.956452E-09    7.111710E-09    2.650942E-08    1.080071E-07    4.958205E-07
         2.497229E-06    1.298524E-05    6.731461E-05    3.364934E-04    1.536759E-03    5.854020E-03    1.698670E-02    3.018331E-02    3.078114E-02    9.604366E-03
         7.882759E-04    4.036914E-05    1.973135E-06    1.135956E-07    5.711393E-09    2.888150E-10    1.490868E-11    8.102582E-13    4.779025E-14    3.033162E-15
         2.048493E-16    4.971637E-17    1.199601E-17    2.557248E-18    4.469189E-19    6.030907E-20    5.911175E-21    3.900857E-22    1.524965E-23    2.803533E-25
  50     8.415124E-25    6.614817E-22    2.842666E-20    5.178126E-19    5.396112E-18    3.751790E-17    2.866780E-16    6.225470E-15    1.016207E-13    1.215059E-12
         1.098384E-11    7.889014E-11    4.676933E-10    2.362361E-09    1.045050E-08    4.145257E-08    1.502757E-07    5.057524E-07    1.600785E-06    4.817510E-06
         1.391429E-05    3.888306E-05    1.054571E-04    2.766227E-04    6.938720E-04    1.621201E-03    3.222527E-03    4.609704E-03    1.863101E-03    6.743767E-04
         5.159202E-05    2.091363E-06    1.206307E-07    8.872333E-09    7.498693E-10    6.982466E-11    6.980463E-12    7.274863E-13    7.628523E-14    7.584608E-15
         6.652689E-16    9.168726E-17    2.847544E-17    6.856359E-18    1.277719E-18    1.784331E-19    1.774683E-20    1.172641E-21    4.556626E-23    8.322775E-25

 CONCENTRATION WILL BE SAVED ON UNIT 1031 AT END OF TIME STEP  100, STRESS PERIOD    1


  MASS BUDGET FOR ENTIRE MODEL AT END OF TIME STEP  100, STRESS PERIOD   1
  ---------------------------------------------------------------------------------------------------

     CUMULATIVE MASS      M       RATES FOR THIS TIME STEP      M/T          PACKAGE NAME    
     ------------------                 ------------------------                     ----------------

           IN:                                      IN:
           ---                                      ---
     STORAGE-AQUEOUS =       1.0903E-11       STORAGE-AQUEOUS =       8.0060E-27     MST                              
                 WEL =           0.0000                   WEL =           0.0000     SSM_WEL1                         
                 WEL =           0.1000                   WEL =       5.0000E-04     SSM_WEL2                         

            TOTAL IN =           0.1000              TOTAL IN =       5.0000E-04

          OUT:                                     OUT:
          ----                                     ----
     STORAGE-AQUEOUS =       5.5569E-02       STORAGE-AQUEOUS =       1.3979E-04     MST                              
                 WEL =       4.4432E-02                   WEL =       3.6021E-04     SSM_WEL1                         
                 WEL =           0.0000                   WEL =           0.0000     SSM_WEL2                         

           TOTAL OUT =           0.1000             TOTAL OUT =       5.0000E-04

            IN - OUT =      -6.3742E-07              IN - OUT =      -1.5433E-09

 PERCENT DISCREPANCY =          -0.00     PERCENT DISCREPANCY =          -0.00




         TIME SUMMARY AT END OF TIME STEP  100 IN STRESS PERIOD    1
                    SECONDS     MINUTES      HOURS       DAYS        YEARS
                    -----------------------------------------------------------
   TIME STEP LENGTH 1.72800E+05  2880.0      48.000      2.0000     5.47570E-03
 STRESS PERIOD TIME 1.72800E+07 2.88000E+05  4800.0      200.00     0.54757    
         TOTAL TIME 1.72800E+07 2.88000E+05  4800.0      200.00     0.54757    


end timestep


start timestep kper="2" kstp="1" mode="normal"


 END OF FILE DETECTED IN OUTPUT CONTROL.
 CURRENT OUTPUT CONTROL SETTINGS WILL BE 
 REPEATED UNTIL THE END OF THE SIMULATION.

 OUTPUT CONTROL FOR STRESS PERIOD 2 IS REPEATED USING SETTINGS FROM A PREVIOUS STRESS PERIOD.
 UBDSV1 SAVING     FLOW-JA-FACE ON UNIT   1030 AT TIME STEP      1, STRESS PERIOD      2
 UBDSV1 SAVING  STORAGE-AQUEOUS ON UNIT   1030 AT TIME STEP      1, STRESS PERIOD      2
 UBDSV06 SAVING  SOURCE-SINK MIX IN MODEL SVA_TM_T         PACKAGE SVA_TM_T        CONNECTED TO MODEL SVA_TM_T         PACKAGE SSM              ON UNIT   1030 AT TIME STEP      1, STRESS PERIOD      2

 CONCENTRATION WILL BE SAVED ON UNIT 1031 AT END OF TIME STEP    1, STRESS PERIOD    2


  MASS BUDGET FOR ENTIRE MODEL AT END OF TIME STEP    1, STRESS PERIOD   2
  ---------------------------------------------------------------------------------------------------

     CUMULATIVE MASS      M       RATES FOR THIS TIME STEP      M/T          PACKAGE NAME    
     ------------------                 ------------------------                     ----------------

           IN:                                      IN:
           ---                                      ---
     STORAGE-AQUEOUS =       3.2516E-06       STORAGE-AQUEOUS =       1.6258E-06     MST                              
                 WEL =           0.0000                   WEL =           0.0000     SSM_WEL1                         
                 WEL =           0.1010                   WEL =       5.0000E-04     SSM_WEL2                         

            TOTAL IN =           0.1010              TOTAL IN =       5.0163E-04

          OUT:                                     OUT:
          ----                                     ----
     STORAGE-AQUEOUS =       5.6059E-02       STORAGE-AQUEOUS =       2.4512E-04     MST                              
                 WEL =       4.4945E-02                   WEL =       2.5651E-04     SSM_WEL1                         
                 WEL =           0.0000                   WEL =           0.0000     SSM_WEL2                         

           TOTAL OUT =           0.1010             TOTAL OUT =       5.0163E-04

            IN - OUT =      -6.3897E-07              IN - OUT =      -7.7447E-10

 PERCENT DISCREPANCY =          -0.00     PERCENT DISCREPANCY =          -0.00




         TIME SUMMARY AT END OF TIME STEP    1 IN STRESS PERIOD    2
                    SECONDS     MINUTES      HOURS       DAYS        YEARS
                    -----------------------------------------------------------
   TIME STEP LENGTH 1.72800E+05  2880.0      48.000      2.0000     5.47570E-03
 STRESS PERIOD TIME 1.72800E+05  2880.0      48.000      2.0000     5.47570E-03
         TOTAL TIME 1.74528E+07 2.90880E+05  4848.0      202.00     0.55305    


end timestep


start timestep kper="2" kstp="2" mode="normal"

 UBDSV1 SAVING     FLOW-JA-FACE ON UNIT   1030 AT TIME STEP      2, STRESS PERIOD      2
 UBDSV1 SAVING  STORAGE-AQUEOUS ON UNIT   1030 AT TIME STEP      2, STRESS PERIOD      2
 UBDSV06 SAVING  SOURCE-SINK MIX IN MODEL SVA_TM_T         PACKAGE SVA_TM_T        CONNECTED TO MODEL SVA_TM_T         PACKAGE SSM              ON UNIT   1030 AT TIME STEP      2, STRESS PERIOD      2

 CONCENTRATION WILL BE SAVED ON UNIT 1031 AT END OF TIME STEP    2, STRESS PERIOD    2


  MASS BUDGET FOR ENTIRE MODEL AT END OF TIME STEP    2, STRESS PERIOD   2
  ---------------------------------------------------------------------------------------------------

     CUMULATIVE MASS      M       RATES FOR THIS TIME STEP      M/T          PACKAGE NAME    
     ------------------                 ------------------------                     ----------------

           IN:                                      IN:
           ---                                      ---
     STORAGE-AQUEOUS =       5.9348E-06       STORAGE-AQUEOUS =       1.3416E-06     MST                              
                 WEL =           0.0000                   WEL =           0.0000     SSM_WEL1                         
                 WEL =           0.1020                   WEL =       5.0000E-04     SSM_WEL2                         

            TOTAL IN =           0.1020              TOTAL IN =       5.0134E-04

          OUT:                                     OUT:
          ----                                     ----
     STORAGE-AQUEOUS =       5.6542E-02       STORAGE-AQUEOUS =       2.4147E-04     MST                              
                 WEL =       4.5464E-02                   WEL =       2.5987E-04     SSM_WEL1                         
                 WEL =           0.0000                   WEL =           0.0000     SSM_WEL2                         

           TOTAL OUT =           0.1020             TOTAL OUT =       5.0134E-04

            IN - OUT =      -6.3843E-07              IN - OUT =       2.7253E-10

 PERCENT DISCREPANCY =          -0.00     PERCENT DISCREPANCY =           0.00




         TIME SUMMARY AT END OF TIME STEP    2 IN STRESS PERIOD    2
                    SECONDS     MINUTES      HOURS       DAYS        YEARS
                    -----------------------------------------------------------
   TIME STEP LENGTH 1.72800E+05  2880.0      48.000      2.0000     5.47570E-03
 STRESS PERIOD TIME 3.45600E+05  5760.0      96.000      4.0000     1.09514E-02
         TOTAL TIME 1.76256E+07 2.93760E+05  4896.0      204.00     0.55852    


end timestep


start timestep kper="2" kstp="3" mode="normal"

 UBDSV1 SAVING     FLOW-JA-FACE ON UNIT   1030 AT TIME STEP      3, STRESS PERIOD      2
 UBDSV1 SAVING  STORAGE-AQUEOUS ON UNIT   1030 AT TIME STEP      3, STRESS PERIOD      2
 UBDSV06 SAVING  SOURCE-SINK MIX IN MODEL SVA_TM_T         PACKAGE SVA_TM_T        CONNECTED TO MODEL SVA_TM_T         PACKAGE SSM              ON UNIT   1030 AT TIME STEP      3, STRESS PERIOD      2

 CONCENTRATION WILL BE SAVED ON UNIT 1031 AT END OF TIME STEP    3, STRESS PERIOD    2


  MASS BUDGET FOR ENTIRE MODEL AT END OF TIME STEP    3, STRESS PERIOD   2
  ---------------------------------------------------------------------------------------------------

     CUMULATIVE MASS      M       RATES FOR THIS TIME STEP      M/T          PACKAGE NAME    
     ------------------                 ------------------------                     ----------------

           IN:                                      IN:
           ---                                      ---
     STORAGE-AQUEOUS =       8.4340E-06       STORAGE-AQUEOUS =       1.2496E-06     MST                              
                 WEL =           0.0000                   WEL =           0.0000     SSM_WEL1                         
                 WEL =           0.1030                   WEL =       5.0000E-04     SSM_WEL2                         

            TOTAL IN =           0.1030              TOTAL IN =       5.0125E-04

          OUT:                                     OUT:
          ----                                     ----
     STORAGE-AQUEOUS =       5.7019E-02       STORAGE-AQUEOUS =       2.3864E-04     MST                              
                 WEL =       4.5990E-02                   WEL =       2.6262E-04     SSM_WEL1                         
                 WEL =           0.0000                   WEL =           0.0000     SSM_WEL2                         

           TOTAL OUT =           0.1030             TOTAL OUT =       5.0125E-04

            IN - OUT =      -6.4412E-07              IN - OUT =      -2.8455E-09

 PERCENT DISCREPANCY =          -0.00     PERCENT DISCREPANCY =          -0.00




         TIME SUMMARY AT END OF TIME STEP    3 IN STRESS PERIOD    2
                    SECONDS     MINUTES      HOURS       DAYS        YEARS
                    -----------------------------------------------------------
   TIME STEP LENGTH 1.72800E+05  2880.0      48.000      2.0000     5.47570E-03
 STRESS PERIOD TIME 5.18400E+05  8640.0      144.00      6.0000     1.64271E-02
         TOTAL TIME 1.77984E+07 2.96640E+05  4944.0      206.00     0.56400    


end timestep


start timestep kper="2" kstp="4" mode="normal"

 UBDSV1 SAVING     FLOW-JA-FACE ON UNIT   1030 AT TIME STEP      4, STRESS PERIOD      2
 UBDSV1 SAVING  STORAGE-AQUEOUS ON UNIT   1030 AT TIME STEP      4, STRESS PERIOD      2
 UBDSV06 SAVING  SOURCE-SINK MIX IN MODEL SVA_TM_T         PACKAGE SVA_TM_T        CONNECTED TO MODEL SVA_TM_T         PACKAGE SSM              ON UNIT   1030 AT TIME STEP      4, STRESS PERIOD      2

 CONCENTRATION WILL BE SAVED ON UNIT 1031 AT END OF TIME STEP    4, STRESS PERIOD    2


  MASS BUDGET FOR ENTIRE MODEL AT END OF TIME STEP    4, STRESS PERIOD   2
  ---------------------------------------------------------------------------------------------------

     CUMULATIVE MASS      M       RATES FOR THIS TIME STEP      M/T          PACKAGE NAME    
     ------------------                 ------------------------                     ----------------

           IN:                                      IN:
           ---                                      ---
     STORAGE-AQUEOUS =       1.0632E-05       STORAGE-AQUEOUS =       1.0989E-06     MST                              
                 WEL =           0.0000                   WEL =           0.0000     SSM_WEL1                         
                 WEL =           0.1040                   WEL =       5.0000E-04     SSM_WEL2                         

            TOTAL IN =           0.1040              TOTAL IN =       5.0110E-04

          OUT:                                     OUT:
          ----                                     ----
     STORAGE-AQUEOUS =       5.7492E-02       STORAGE-AQUEOUS =       2.3626E-04     MST                              
                 WEL =       4.6519E-02                   WEL =       2.6484E-04     SSM_WEL1                         
                 WEL =           0.0000                   WEL =           0.0000     SSM_WEL2                         

           TOTAL OUT =           0.1040             TOTAL OUT =       5.0110E-04

            IN - OUT =      -6.4416E-07              IN - OUT =      -2.1224E-11

 PERCENT DISCREPANCY =          -0.00     PERCENT DISCREPANCY =          -0.00




         TIME SUMMARY AT END OF TIME STEP    4 IN STRESS PERIOD    2
                    SECONDS     MINUTES      HOURS       DAYS        YEARS
                    -----------------------------------------------------------
   TIME STEP LENGTH 1.72800E+05  2880.0      48.000      2.0000     5.47570E-03
 STRESS PERIOD TIME 6.91200E+05  11520.      192.00      8.0000     2.19028E-02
         TOTAL TIME 1.79712E+07 2.99520E+05  4992.0      208.00     0.56947    


end timestep


start timestep kper="2" kstp="5" mode="normal"

 UBDSV1 SAVING     FLOW-JA-FACE ON UNIT   1030 AT TIME STEP      5, STRESS PERIOD      2
 UBDSV1 SAVING  STORAGE-AQUEOUS ON UNIT   1030 AT TIME STEP      5, STRESS PERIOD      2
 UBDSV06 SAVING  SOURCE-SINK MIX IN MODEL SVA_TM_T         PACKAGE SVA_TM_T        CONNECTED TO MODEL SVA_TM_T         PACKAGE SSM              ON UNIT   1030 AT TIME STEP      5, STRESS PERIOD      2

 CONCENTRATION WILL BE SAVED ON UNIT 1031 AT END OF TIME STEP    5, STRESS PERIOD    2


  MASS BUDGET FOR ENTIRE MODEL AT END OF TIME STEP    5, STRESS PERIOD   2
  ---------------------------------------------------------------------------------------------------

     CUMULATIVE MASS      M       RATES FOR THIS TIME STEP      M/T          PACKAGE NAME    
     ------------------                 ------------------------                     ----------------

           IN:                                      IN:
           ---                                      ---
     STORAGE-AQUEOUS =       1.2561E-05       STORAGE-AQUEOUS =       9.6454E-07     MST                              
                 WEL =           0.0000                   WEL =           0.0000     SSM_WEL1                         
                 WEL =           0.1050                   WEL =       5.0000E-04     SSM_WEL2                         

            TOTAL IN =           0.1050              TOTAL IN =       5.0096E-04

          OUT:                                     OUT:
          ----                                     ----
     STORAGE-AQUEOUS =       5.7960E-02       STORAGE-AQUEOUS =       2.3424E-04     MST                              
                 WEL =       4.7053E-02                   WEL =       2.6672E-04     SSM_WEL1                         
                 WEL =           0.0000                   WEL =           0.0000     SSM_WEL2                         

           TOTAL OUT =           0.1050             TOTAL OUT =       5.0096E-04

            IN - OUT =      -6.4422E-07              IN - OUT =      -3.0166E-11

 PERCENT DISCREPANCY =          -0.00     PERCENT DISCREPANCY =          -0.00




         TIME SUMMARY AT END OF TIME STEP    5 IN STRESS PERIOD    2
                    SECONDS     MINUTES      HOURS       DAYS        YEARS
                    -----------------------------------------------------------
   TIME STEP LENGTH 1.72800E+05  2880.0      48.000      2.0000     5.47570E-03
 STRESS PERIOD TIME 8.64000E+05  14400.      240.00      10.000     2.73785E-02
         TOTAL TIME 1.81440E+07 3.02400E+05  5040.0      210.00     0.57495    


end timestep


start timestep kper="2" kstp="6" mode="normal"

 UBDSV1 SAVING     FLOW-JA-FACE ON UNIT   1030 AT TIME STEP      6, STRESS PERIOD      2
 UBDSV1 SAVING  STORAGE-AQUEOUS ON UNIT   1030 AT TIME STEP      6, STRESS PERIOD      2
 UBDSV06 SAVING  SOURCE-SINK MIX IN MODEL SVA_TM_T         PACKAGE SVA_TM_T        CONNECTED TO MODEL SVA_TM_T         PACKAGE SSM              ON UNIT   1030 AT TIME STEP      6, STRESS PERIOD      2

 CONCENTRATION WILL BE SAVED ON UNIT 1031 AT END OF TIME STEP    6, STRESS PERIOD    2


  MASS BUDGET FOR ENTIRE MODEL AT END OF TIME STEP    6, STRESS PERIOD   2
  ---------------------------------------------------------------------------------------------------

     CUMULATIVE MASS      M       RATES FOR THIS TIME STEP      M/T          PACKAGE NAME    
     ------------------                 ------------------------                     ----------------

           IN:                                      IN:
           ---                                      ---
     STORAGE-AQUEOUS =       1.4246E-05       STORAGE-AQUEOUS =       8.4242E-07     MST                              
                 WEL =           0.0000                   WEL =           0.0000     SSM_WEL1                         
                 WEL =           0.1060                   WEL =       5.0000E-04     SSM_WEL2                         

            TOTAL IN =           0.1060              TOTAL IN =       5.0084E-04

          OUT:                                     OUT:
          ----                                     ----
     STORAGE-AQUEOUS =       5.8425E-02       STORAGE-AQUEOUS =       2.3249E-04     MST                              
                 WEL =       4.7589E-02                   WEL =       2.6835E-04     SSM_WEL1                         
                 WEL =           0.0000                   WEL =           0.0000     SSM_WEL2                         

           TOTAL OUT =           0.1060             TOTAL OUT =       5.0084E-04

            IN - OUT =      -6.4409E-07              IN - OUT =       6.6050E-11

 PERCENT DISCREPANCY =          -0.00     PERCENT DISCREPANCY =           0.00




         TIME SUMMARY AT END OF TIME STEP    6 IN STRESS PERIOD    2
                    SECONDS     MINUTES      HOURS       DAYS        YEARS
                    -----------------------------------------------------------
   TIME STEP LENGTH 1.72800E+05  2880.0      48.000      2.0000     5.47570E-03
 STRESS PERIOD TIME 1.03680E+06  17280.      288.00      12.000     3.28542E-02
         TOTAL TIME 1.83168E+07 3.05280E+05  5088.0      212.00     0.58042    


end timestep


start timestep kper="2" kstp="7" mode="normal"

 UBDSV1 SAVING     FLOW-JA-FACE ON UNIT   1030 AT TIME STEP      7, STRESS PERIOD      2
 UBDSV1 SAVING  STORAGE-AQUEOUS ON UNIT   1030 AT TIME STEP      7, STRESS PERIOD      2
 UBDSV06 SAVING  SOURCE-SINK MIX IN MODEL SVA_TM_T         PACKAGE SVA_TM_T        CONNECTED TO MODEL SVA_TM_T         PACKAGE SSM              ON UNIT   1030 AT TIME STEP      7, STRESS PERIOD      2

 CONCENTRATION WILL BE SAVED ON UNIT 1031 AT END OF TIME STEP    7, STRESS PERIOD    2


  MASS BUDGET FOR ENTIRE MODEL AT END OF TIME STEP    7, STRESS PERIOD   2
  ---------------------------------------------------------------------------------------------------

     CUMULATIVE MASS      M       RATES FOR THIS TIME STEP      M/T          PACKAGE NAME    
     ------------------                 ------------------------                     ----------------

           IN:                                      IN:
           ---                                      ---
     STORAGE-AQUEOUS =       1.5679E-05       STORAGE-AQUEOUS =       7.1645E-07     MST                              
                 WEL =           0.0000                   WEL =           0.0000     SSM_WEL1                         
                 WEL =           0.1070                   WEL =       5.0000E-04     SSM_WEL2                         

            TOTAL IN =           0.1070              TOTAL IN =       5.0072E-04

          OUT:                                     OUT:
          ----                                     ----
     STORAGE-AQUEOUS =       5.8887E-02       STORAGE-AQUEOUS =       2.3090E-04     MST                              
                 WEL =       4.8129E-02                   WEL =       2.6982E-04     SSM_WEL1                         
                 WEL =           0.0000                   WEL =           0.0000     SSM_WEL2                         

           TOTAL OUT =           0.1070             TOTAL OUT =       5.0072E-04

            IN - OUT =      -6.4402E-07              IN - OUT =       3.1785E-11

 PERCENT DISCREPANCY =          -0.00     PERCENT DISCREPANCY =           0.00




         TIME SUMMARY AT END OF TIME STEP    7 IN STRESS PERIOD    2
                    SECONDS     MINUTES      HOURS       DAYS        YEARS
                    -----------------------------------------------------------
   TIME STEP LENGTH 1.72800E+05  2880.0      48.000      2.0000     5.47570E-03
 STRESS PERIOD TIME 1.20960E+06  20160.      336.00      14.000     3.83299E-02
         TOTAL TIME 1.84896E+07 3.08160E+05  5136.0      214.00     0.58590    


end timestep


start timestep kper="2" kstp="8" mode="normal"

 UBDSV1 SAVING     FLOW-JA-FACE ON UNIT   1030 AT TIME STEP      8, STRESS PERIOD      2
 UBDSV1 SAVING  STORAGE-AQUEOUS ON UNIT   1030 AT TIME STEP      8, STRESS PERIOD      2
 UBDSV06 SAVING  SOURCE-SINK MIX IN MODEL SVA_TM_T         PACKAGE SVA_TM_T        CONNECTED TO MODEL SVA_TM_T         PACKAGE SSM              ON UNIT   1030 AT TIME STEP      8, STRESS PERIOD      2

 CONCENTRATION WILL BE SAVED ON UNIT 1031 AT END OF TIME STEP    8, STRESS PERIOD    2


  MASS BUDGET FOR ENTIRE MODEL AT END OF TIME STEP    8, STRESS PERIOD   2
  ---------------------------------------------------------------------------------------------------

     CUMULATIVE MASS      M       RATES FOR THIS TIME STEP      M/T          PACKAGE NAME    
     ------------------                 ------------------------                     ----------------

           IN:                                      IN:
           ---                                      ---
     STORAGE-AQUEOUS =       1.6901E-05       STORAGE-AQUEOUS =       6.1108E-07     MST                              
                 WEL =           0.0000                   WEL =           0.0000     SSM_WEL1                         
                 WEL =           0.1080                   WEL =       5.0000E-04     SSM_WEL2                         

            TOTAL IN =           0.1080              TOTAL IN =       5.0061E-04

          OUT:                                     OUT:
          ----                                     ----
     STORAGE-AQUEOUS =       5.9346E-02       STORAGE-AQUEOUS =       2.2942E-04     MST                              
                 WEL =       4.8671E-02                   WEL =       2.7119E-04     SSM_WEL1                         
                 WEL =           0.0000                   WEL =           0.0000     SSM_WEL2                         

           TOTAL OUT =           0.1080             TOTAL OUT =       5.0061E-04

            IN - OUT =      -6.4401E-07              IN - OUT =       5.1893E-12

 PERCENT DISCREPANCY =          -0.00     PERCENT DISCREPANCY =           0.00




         TIME SUMMARY AT END OF TIME STEP    8 IN STRESS PERIOD    2
                    SECONDS     MINUTES      HOURS       DAYS        YEARS
                    -----------------------------------------------------------
   TIME STEP LENGTH 1.72800E+05  2880.0      48.000      2.0000     5.47570E-03
 STRESS PERIOD TIME 1.38240E+06  23040.      384.00      16.000     4.38056E-02
         TOTAL TIME 1.86624E+07 3.11040E+05  5184.0      216.00     0.59138    


end timestep


start timestep kper="2" kstp="9" mode="normal"

 UBDSV1 SAVING     FLOW-JA-FACE ON UNIT   1030 AT TIME STEP      9, STRESS PERIOD      2
 UBDSV1 SAVING  STORAGE-AQUEOUS ON UNIT   1030 AT TIME STEP      9, STRESS PERIOD      2
 UBDSV06 SAVING  SOURCE-SINK MIX IN MODEL SVA_TM_T         PACKAGE SVA_TM_T        CONNECTED TO MODEL SVA_TM_T         PACKAGE SSM              ON UNIT   1030 AT TIME STEP      9, STRESS PERIOD      2

 CONCENTRATION WILL BE SAVED ON UNIT 1031 AT END OF TIME STEP    9, STRESS PERIOD    2


  MASS BUDGET FOR ENTIRE MODEL AT END OF TIME STEP    9, STRESS PERIOD   2
  ---------------------------------------------------------------------------------------------------

     CUMULATIVE MASS      M       RATES FOR THIS TIME STEP      M/T          PACKAGE NAME    
     ------------------                 ------------------------                     ----------------

           IN:                                      IN:
           ---                                      ---
     STORAGE-AQUEOUS =       1.7938E-05       STORAGE-AQUEOUS =       5.1862E-07     MST                              
                 WEL =           0.0000                   WEL =           0.0000     SSM_WEL1                         
                 WEL =           0.1090                   WEL =       5.0000E-04     SSM_WEL2                         

            TOTAL IN =           0.1090              TOTAL IN =       5.0052E-04

          OUT:                                     OUT:
          ----                                     ----
     STORAGE-AQUEOUS =       5.9802E-02       STORAGE-AQUEOUS =       2.2801E-04     MST                              
                 WEL =       4.9217E-02                   WEL =       2.7251E-04     SSM_WEL1                         
                 WEL =           0.0000                   WEL =           0.0000     SSM_WEL2                         

           TOTAL OUT =           0.1090             TOTAL OUT =       5.0052E-04

            IN - OUT =      -6.4390E-07              IN - OUT =       5.8016E-11

 PERCENT DISCREPANCY =          -0.00     PERCENT DISCREPANCY =           0.00




         TIME SUMMARY AT END OF TIME STEP    9 IN STRESS PERIOD    2
                    SECONDS     MINUTES      HOURS       DAYS        YEARS
                    -----------------------------------------------------------
   TIME STEP LENGTH 1.72800E+05  2880.0      48.000      2.0000     5.47570E-03
 STRESS PERIOD TIME 1.55520E+06  25920.      432.00      18.000     4.92813E-02
         TOTAL TIME 1.88352E+07 3.13920E+05  5232.0      218.00     0.59685    


end timestep


start timestep kper="2" kstp="10" mode="normal"

 UBDSV1 SAVING     FLOW-JA-FACE ON UNIT   1030 AT TIME STEP     10, STRESS PERIOD      2
 UBDSV1 SAVING  STORAGE-AQUEOUS ON UNIT   1030 AT TIME STEP     10, STRESS PERIOD      2
 UBDSV06 SAVING  SOURCE-SINK MIX IN MODEL SVA_TM_T         PACKAGE SVA_TM_T        CONNECTED TO MODEL SVA_TM_T         PACKAGE SSM              ON UNIT   1030 AT TIME STEP     10, STRESS PERIOD      2

 CONCENTRATION WILL BE SAVED ON UNIT 1031 AT END OF TIME STEP   10, STRESS PERIOD    2


  MASS BUDGET FOR ENTIRE MODEL AT END OF TIME STEP   10, STRESS PERIOD   2
  ---------------------------------------------------------------------------------------------------

     CUMULATIVE MASS      M       RATES FOR THIS TIME STEP      M/T          PACKAGE NAME    
     ------------------                 ------------------------                     ----------------

           IN:                                      IN:
           ---                                      ---
     STORAGE-AQUEOUS =       1.8855E-05       STORAGE-AQUEOUS =       4.5846E-07     MST                              
                 WEL =           0.0000                   WEL =           0.0000     SSM_WEL1                         
                 WEL =           0.1100                   WEL =       5.0000E-04     SSM_WEL2                         

            TOTAL IN =           0.1100              TOTAL IN =       5.0046E-04

          OUT:                                     OUT:
          ----                                     ----
     STORAGE-AQUEOUS =       6.0255E-02       STORAGE-AQUEOUS =       2.2668E-04     MST                              
                 WEL =       4.9764E-02                   WEL =       2.7378E-04     SSM_WEL1                         
                 WEL =           0.0000                   WEL =           0.0000     SSM_WEL2                         

           TOTAL OUT =           0.1100             TOTAL OUT =       5.0046E-04

            IN - OUT =      -6.4564E-07              IN - OUT =      -8.6842E-10

 PERCENT DISCREPANCY =          -0.00     PERCENT DISCREPANCY =          -0.00




         TIME SUMMARY AT END OF TIME STEP   10 IN STRESS PERIOD    2
                    SECONDS     MINUTES      HOURS       DAYS        YEARS
                    -----------------------------------------------------------
   TIME STEP LENGTH 1.72800E+05  2880.0      48.000      2.0000     5.47570E-03
 STRESS PERIOD TIME 1.72800E+06  28800.      480.00      20.000     5.47570E-02
         TOTAL TIME 1.90080E+07 3.16800E+05  5280.0      220.00     0.60233    


end timestep


start timestep kper="2" kstp="11" mode="normal"

 UBDSV1 SAVING     FLOW-JA-FACE ON UNIT   1030 AT TIME STEP     11, STRESS PERIOD      2
 UBDSV1 SAVING  STORAGE-AQUEOUS ON UNIT   1030 AT TIME STEP     11, STRESS PERIOD      2
 UBDSV06 SAVING  SOURCE-SINK MIX IN MODEL SVA_TM_T         PACKAGE SVA_TM_T        CONNECTED TO MODEL SVA_TM_T         PACKAGE SSM              ON UNIT   1030 AT TIME STEP     11, STRESS PERIOD      2

 CONCENTRATION WILL BE SAVED ON UNIT 1031 AT END OF TIME STEP   11, STRESS PERIOD    2


  MASS BUDGET FOR ENTIRE MODEL AT END OF TIME STEP   11, STRESS PERIOD   2
  ---------------------------------------------------------------------------------------------------

     CUMULATIVE MASS      M       RATES FOR THIS TIME STEP      M/T          PACKAGE NAME    
     ------------------                 ------------------------                     ----------------

           IN:                                      IN:
           ---                                      ---
     STORAGE-AQUEOUS =       1.9690E-05       STORAGE-AQUEOUS =       4.1761E-07     MST                              
                 WEL =           0.0000                   WEL =           0.0000     SSM_WEL1                         
                 WEL =           0.1110                   WEL =       5.0000E-04     SSM_WEL2                         

            TOTAL IN =           0.1110              TOTAL IN =       5.0042E-04

          OUT:                                     OUT:
          ----                                     ----
     STORAGE-AQUEOUS =       6.0706E-02       STORAGE-AQUEOUS =       2.2541E-04     MST                              
                 WEL =       5.0314E-02                   WEL =       2.7501E-04     SSM_WEL1                         
                 WEL =           0.0000                   WEL =           0.0000     SSM_WEL2                         

           TOTAL OUT =           0.1110             TOTAL OUT =       5.0042E-04

            IN - OUT =      -6.5033E-07              IN - OUT =      -2.3476E-09

 PERCENT DISCREPANCY =          -0.00     PERCENT DISCREPANCY =          -0.00




         TIME SUMMARY AT END OF TIME STEP   11 IN STRESS PERIOD    2
                    SECONDS     MINUTES      HOURS       DAYS        YEARS
                    -----------------------------------------------------------
   TIME STEP LENGTH 1.72800E+05  2880.0      48.000      2.0000     5.47570E-03
 STRESS PERIOD TIME 1.90080E+06  31680.      528.00      22.000     6.02327E-02
         TOTAL TIME 1.91808E+07 3.19680E+05  5328.0      222.00     0.60780    


end timestep


start timestep kper="2" kstp="12" mode="normal"

 UBDSV1 SAVING     FLOW-JA-FACE ON UNIT   1030 AT TIME STEP     12, STRESS PERIOD      2
 UBDSV1 SAVING  STORAGE-AQUEOUS ON UNIT   1030 AT TIME STEP     12, STRESS PERIOD      2
 UBDSV06 SAVING  SOURCE-SINK MIX IN MODEL SVA_TM_T         PACKAGE SVA_TM_T        CONNECTED TO MODEL SVA_TM_T         PACKAGE SSM              ON UNIT   1030 AT TIME STEP     12, STRESS PERIOD      2

 CONCENTRATION WILL BE SAVED ON UNIT 1031 AT END OF TIME STEP   12, STRESS PERIOD    2


  MASS BUDGET FOR ENTIRE MODEL AT END OF TIME STEP   12, STRESS PERIOD   2
  ---------------------------------------------------------------------------------------------------

     CUMULATIVE MASS      M       RATES FOR THIS TIME STEP      M/T          PACKAGE NAME    
     ------------------                 ------------------------                     ----------------

           IN:                                      IN:
           ---                                      ---
     STORAGE-AQUEOUS =       2.0446E-05       STORAGE-AQUEOUS =       3.7767E-07     MST                              
                 WEL =           0.0000                   WEL =           0.0000     SSM_WEL1                         
                 WEL =           0.1120                   WEL =       5.0000E-04     SSM_WEL2                         

            TOTAL IN =           0.1120              TOTAL IN =       5.0038E-04

          OUT:                                     OUT:
          ----                                     ----
     STORAGE-AQUEOUS =       6.1155E-02       STORAGE-AQUEOUS =       2.2417E-04     MST                              
                 WEL =       5.0867E-02                   WEL =       2.7621E-04     SSM_WEL1                         
                 WEL =           0.0000                   WEL =           0.0000     SSM_WEL2                         

           TOTAL OUT =           0.1120             TOTAL OUT =       5.0038E-04

            IN - OUT =      -6.5466E-07              IN - OUT =      -2.1640E-09

 PERCENT DISCREPANCY =          -0.00     PERCENT DISCREPANCY =          -0.00




         TIME SUMMARY AT END OF TIME STEP   12 IN STRESS PERIOD    2
                    SECONDS     MINUTES      HOURS       DAYS        YEARS
                    -----------------------------------------------------------
   TIME STEP LENGTH 1.72800E+05  2880.0      48.000      2.0000     5.47570E-03
 STRESS PERIOD TIME 2.07360E+06  34560.      576.00      24.000     6.57084E-02
         TOTAL TIME 1.93536E+07 3.22560E+05  5376.0      224.00     0.61328    


end timestep


start timestep kper="2" kstp="13" mode="normal"

 UBDSV1 SAVING     FLOW-JA-FACE ON UNIT   1030 AT TIME STEP     13, STRESS PERIOD      2
 UBDSV1 SAVING  STORAGE-AQUEOUS ON UNIT   1030 AT TIME STEP     13, STRESS PERIOD      2
 UBDSV06 SAVING  SOURCE-SINK MIX IN MODEL SVA_TM_T         PACKAGE SVA_TM_T        CONNECTED TO MODEL SVA_TM_T         PACKAGE SSM              ON UNIT   1030 AT TIME STEP     13, STRESS PERIOD      2

 CONCENTRATION WILL BE SAVED ON UNIT 1031 AT END OF TIME STEP   13, STRESS PERIOD    2


  MASS BUDGET FOR ENTIRE MODEL AT END OF TIME STEP   13, STRESS PERIOD   2
  ---------------------------------------------------------------------------------------------------

     CUMULATIVE MASS      M       RATES FOR THIS TIME STEP      M/T          PACKAGE NAME    
     ------------------                 ------------------------                     ----------------

           IN:                                      IN:
           ---                                      ---
     STORAGE-AQUEOUS =       2.1123E-05       STORAGE-AQUEOUS =       3.3895E-07     MST                              
                 WEL =           0.0000                   WEL =           0.0000     SSM_WEL1                         
                 WEL =           0.1130                   WEL =       5.0000E-04     SSM_WEL2                         

            TOTAL IN =           0.1130              TOTAL IN =       5.0034E-04

          OUT:                                     OUT:
          ----                                     ----
     STORAGE-AQUEOUS =       6.1601E-02       STORAGE-AQUEOUS =       2.2299E-04     MST                              
                 WEL =       5.1421E-02                   WEL =       2.7735E-04     SSM_WEL1                         
                 WEL =           0.0000                   WEL =           0.0000     SSM_WEL2                         

           TOTAL OUT =           0.1130             TOTAL OUT =       5.0034E-04

            IN - OUT =      -6.5947E-07              IN - OUT =      -2.4082E-09

 PERCENT DISCREPANCY =          -0.00     PERCENT DISCREPANCY =          -0.00




         TIME SUMMARY AT END OF TIME STEP   13 IN STRESS PERIOD    2
                    SECONDS     MINUTES      HOURS       DAYS        YEARS
                    -----------------------------------------------------------
   TIME STEP LENGTH 1.72800E+05  2880.0      48.000      2.0000     5.47570E-03
 STRESS PERIOD TIME 2.24640E+06  37440.      624.00      26.000     7.11841E-02
         TOTAL TIME 1.95264E+07 3.25440E+05  5424.0      226.00     0.61875    


end timestep


start timestep kper="2" kstp="14" mode="normal"

 UBDSV1 SAVING     FLOW-JA-FACE ON UNIT   1030 AT TIME STEP     14, STRESS PERIOD      2
 UBDSV1 SAVING  STORAGE-AQUEOUS ON UNIT   1030 AT TIME STEP     14, STRESS PERIOD      2
 UBDSV06 SAVING  SOURCE-SINK MIX IN MODEL SVA_TM_T         PACKAGE SVA_TM_T        CONNECTED TO MODEL SVA_TM_T         PACKAGE SSM              ON UNIT   1030 AT TIME STEP     14, STRESS PERIOD      2

 CONCENTRATION WILL BE SAVED ON UNIT 1031 AT END OF TIME STEP   14, STRESS PERIOD    2


  MASS BUDGET FOR ENTIRE MODEL AT END OF TIME STEP   14, STRESS PERIOD   2
  ---------------------------------------------------------------------------------------------------

     CUMULATIVE MASS      M       RATES FOR THIS TIME STEP      M/T          PACKAGE NAME    
     ------------------                 ------------------------                     ----------------

           IN:                                      IN:
           ---                                      ---
     STORAGE-AQUEOUS =       2.1728E-05       STORAGE-AQUEOUS =       3.0210E-07     MST                              
                 WEL =           0.0000                   WEL =           0.0000     SSM_WEL1                         
                 WEL =           0.1140                   WEL =       5.0000E-04     SSM_WEL2                         

            TOTAL IN =           0.1140              TOTAL IN =       5.0030E-04

          OUT:                                     OUT:
          ----                                     ----
     STORAGE-AQUEOUS =       6.2044E-02       STORAGE-AQUEOUS =       2.2185E-04     MST                              
                 WEL =       5.1978E-02                   WEL =       2.7846E-04     SSM_WEL1                         
                 WEL =           0.0000                   WEL =           0.0000     SSM_WEL2                         

           TOTAL OUT =           0.1140             TOTAL OUT =       5.0031E-04

            IN - OUT =      -6.6845E-07              IN - OUT =      -4.4882E-09

 PERCENT DISCREPANCY =          -0.00     PERCENT DISCREPANCY =          -0.00




         TIME SUMMARY AT END OF TIME STEP   14 IN STRESS PERIOD    2
                    SECONDS     MINUTES      HOURS       DAYS        YEARS
                    -----------------------------------------------------------
   TIME STEP LENGTH 1.72800E+05  2880.0      48.000      2.0000     5.47570E-03
 STRESS PERIOD TIME 2.41920E+06  40320.      672.00      28.000     7.66598E-02
         TOTAL TIME 1.96992E+07 3.28320E+05  5472.0      228.00     0.62423    


end timestep


start timestep kper="2" kstp="15" mode="normal"

 UBDSV1 SAVING     FLOW-JA-FACE ON UNIT   1030 AT TIME STEP     15, STRESS PERIOD      2
 UBDSV1 SAVING  STORAGE-AQUEOUS ON UNIT   1030 AT TIME STEP     15, STRESS PERIOD      2
 UBDSV06 SAVING  SOURCE-SINK MIX IN MODEL SVA_TM_T         PACKAGE SVA_TM_T        CONNECTED TO MODEL SVA_TM_T         PACKAGE SSM              ON UNIT   1030 AT TIME STEP     15, STRESS PERIOD      2

 CONCENTRATION WILL BE SAVED ON UNIT 1031 AT END OF TIME STEP   15, STRESS PERIOD    2


  MASS BUDGET FOR ENTIRE MODEL AT END OF TIME STEP   15, STRESS PERIOD   2
  ---------------------------------------------------------------------------------------------------

     CUMULATIVE MASS      M       RATES FOR THIS TIME STEP      M/T          PACKAGE NAME    
     ------------------                 ------------------------                     ----------------

           IN:                                      IN:
           ---                                      ---
     STORAGE-AQUEOUS =       2.2262E-05       STORAGE-AQUEOUS =       2.6729E-07     MST                              
                 WEL =           0.0000                   WEL =           0.0000     SSM_WEL1                         
                 WEL =           0.1150                   WEL =       5.0000E-04     SSM_WEL2                         

            TOTAL IN =           0.1150              TOTAL IN =       5.0027E-04

          OUT:                                     OUT:
          ----                                     ----
     STORAGE-AQUEOUS =       6.2486E-02       STORAGE-AQUEOUS =       2.2076E-04     MST                              
                 WEL =       5.2537E-02                   WEL =       2.7952E-04     SSM_WEL1                         
                 WEL =           0.0000                   WEL =           0.0000     SSM_WEL2                         

           TOTAL OUT =           0.1150             TOTAL OUT =       5.0027E-04

            IN - OUT =      -6.8331E-07              IN - OUT =      -7.4277E-09

 PERCENT DISCREPANCY =          -0.00     PERCENT DISCREPANCY =          -0.00




         TIME SUMMARY AT END OF TIME STEP   15 IN STRESS PERIOD    2
                    SECONDS     MINUTES      HOURS       DAYS        YEARS
                    -----------------------------------------------------------
   TIME STEP LENGTH 1.72800E+05  2880.0      48.000      2.0000     5.47570E-03
 STRESS PERIOD TIME 2.59200E+06  43200.      720.00      30.000     8.21355E-02
         TOTAL TIME 1.98720E+07 3.31200E+05  5520.0      230.00     0.62971    


end timestep


start timestep kper="2" kstp="16" mode="normal"

 UBDSV1 SAVING     FLOW-JA-FACE ON UNIT   1030 AT TIME STEP     16, STRESS PERIOD      2
 UBDSV1 SAVING  STORAGE-AQUEOUS ON UNIT   1030 AT TIME STEP     16, STRESS PERIOD      2
 UBDSV06 SAVING  SOURCE-SINK MIX IN MODEL SVA_TM_T         PACKAGE SVA_TM_T        CONNECTED TO MODEL SVA_TM_T         PACKAGE SSM              ON UNIT   1030 AT TIME STEP     16, STRESS PERIOD      2

 CONCENTRATION WILL BE SAVED ON UNIT 1031 AT END OF TIME STEP   16, STRESS PERIOD    2


  MASS BUDGET FOR ENTIRE MODEL AT END OF TIME STEP   16, STRESS PERIOD   2
  ---------------------------------------------------------------------------------------------------

     CUMULATIVE MASS      M       RATES FOR THIS TIME STEP      M/T          PACKAGE NAME    
     ------------------                 ------------------------                     ----------------

           IN:                                      IN:
           ---                                      ---
     STORAGE-AQUEOUS =       2.2734E-05       STORAGE-AQUEOUS =       2.3571E-07     MST                              
                 WEL =           0.0000                   WEL =           0.0000     SSM_WEL1                         
                 WEL =           0.1160                   WEL =       5.0000E-04     SSM_WEL2                         

            TOTAL IN =           0.1160              TOTAL IN =       5.0024E-04

          OUT:                                     OUT:
          ----                                     ----
     STORAGE-AQUEOUS =       6.2925E-02       STORAGE-AQUEOUS =       2.1971E-04     MST                              
                 WEL =       5.3098E-02                   WEL =       2.8053E-04     SSM_WEL1                         
                 WEL =           0.0000                   WEL =           0.0000     SSM_WEL2                         

           TOTAL OUT =           0.1160             TOTAL OUT =       5.0024E-04

            IN - OUT =      -7.0120E-07              IN - OUT =      -8.9462E-09

 PERCENT DISCREPANCY =          -0.00     PERCENT DISCREPANCY =          -0.00




         TIME SUMMARY AT END OF TIME STEP   16 IN STRESS PERIOD    2
                    SECONDS     MINUTES      HOURS       DAYS        YEARS
                    -----------------------------------------------------------
   TIME STEP LENGTH 1.72800E+05  2880.0      48.000      2.0000     5.47570E-03
 STRESS PERIOD TIME 2.76480E+06  46080.      768.00      32.000     8.76112E-02
         TOTAL TIME 2.00448E+07 3.34080E+05  5568.0      232.00     0.63518    


end timestep


start timestep kper="2" kstp="17" mode="normal"

 UBDSV1 SAVING     FLOW-JA-FACE ON UNIT   1030 AT TIME STEP     17, STRESS PERIOD      2
 UBDSV1 SAVING  STORAGE-AQUEOUS ON UNIT   1030 AT TIME STEP     17, STRESS PERIOD      2
 UBDSV06 SAVING  SOURCE-SINK MIX IN MODEL SVA_TM_T         PACKAGE SVA_TM_T        CONNECTED TO MODEL SVA_TM_T         PACKAGE SSM              ON UNIT   1030 AT TIME STEP     17, STRESS PERIOD      2

 CONCENTRATION WILL BE SAVED ON UNIT 1031 AT END OF TIME STEP   17, STRESS PERIOD    2


  MASS BUDGET FOR ENTIRE MODEL AT END OF TIME STEP   17, STRESS PERIOD   2
  ---------------------------------------------------------------------------------------------------

     CUMULATIVE MASS      M       RATES FOR THIS TIME STEP      M/T          PACKAGE NAME    
     ------------------                 ------------------------                     ----------------

           IN:                                      IN:
           ---                                      ---
     STORAGE-AQUEOUS =       2.3144E-05       STORAGE-AQUEOUS =       2.0512E-07     MST                              
                 WEL =           0.0000                   WEL =           0.0000     SSM_WEL1                         
                 WEL =           0.1170                   WEL =       5.0000E-04     SSM_WEL2                         

            TOTAL IN =           0.1170              TOTAL IN =       5.0021E-04

          OUT:                                     OUT:
          ----                                     ----
     STORAGE-AQUEOUS =       6.3363E-02       STORAGE-AQUEOUS =       2.1871E-04     MST                              
                 WEL =       5.3661E-02                   WEL =       2.8150E-04     SSM_WEL1                         
                 WEL =           0.0000                   WEL =           0.0000     SSM_WEL2                         

           TOTAL OUT =           0.1170             TOTAL OUT =       5.0021E-04

            IN - OUT =      -7.1944E-07              IN - OUT =      -9.1181E-09

 PERCENT DISCREPANCY =          -0.00     PERCENT DISCREPANCY =          -0.00




         TIME SUMMARY AT END OF TIME STEP   17 IN STRESS PERIOD    2
                    SECONDS     MINUTES      HOURS       DAYS        YEARS
                    -----------------------------------------------------------
   TIME STEP LENGTH 1.72800E+05  2880.0      48.000      2.0000     5.47570E-03
 STRESS PERIOD TIME 2.93760E+06  48960.      816.00      34.000     9.30869E-02
         TOTAL TIME 2.02176E+07 3.36960E+05  5616.0      234.00     0.64066    


end timestep


start timestep kper="2" kstp="18" mode="normal"

 UBDSV1 SAVING     FLOW-JA-FACE ON UNIT   1030 AT TIME STEP     18, STRESS PERIOD      2
 UBDSV1 SAVING  STORAGE-AQUEOUS ON UNIT   1030 AT TIME STEP     18, STRESS PERIOD      2
 UBDSV06 SAVING  SOURCE-SINK MIX IN MODEL SVA_TM_T         PACKAGE SVA_TM_T        CONNECTED TO MODEL SVA_TM_T         PACKAGE SSM              ON UNIT   1030 AT TIME STEP     18, STRESS PERIOD      2

 CONCENTRATION WILL BE SAVED ON UNIT 1031 AT END OF TIME STEP   18, STRESS PERIOD    2


  MASS BUDGET FOR ENTIRE MODEL AT END OF TIME STEP   18, STRESS PERIOD   2
  ---------------------------------------------------------------------------------------------------

     CUMULATIVE MASS      M       RATES FOR THIS TIME STEP      M/T          PACKAGE NAME    
     ------------------                 ------------------------                     ----------------

           IN:                                      IN:
           ---                                      ---
     STORAGE-AQUEOUS =       2.3496E-05       STORAGE-AQUEOUS =       1.7625E-07     MST                              
                 WEL =           0.0000                   WEL =           0.0000     SSM_WEL1                         
                 WEL =           0.1180                   WEL =       5.0000E-04     SSM_WEL2                         

            TOTAL IN =           0.1180              TOTAL IN =       5.0018E-04

          OUT:                                     OUT:
          ----                                     ----
     STORAGE-AQUEOUS =       6.3798E-02       STORAGE-AQUEOUS =       2.1776E-04     MST                              
                 WEL =       5.4226E-02                   WEL =       2.8243E-04     SSM_WEL1                         
                 WEL =           0.0000                   WEL =           0.0000     SSM_WEL2                         

           TOTAL OUT =           0.1180             TOTAL OUT =       5.0020E-04

            IN - OUT =      -7.5698E-07              IN - OUT =      -1.8773E-08

 PERCENT DISCREPANCY =          -0.00     PERCENT DISCREPANCY =          -0.00




         TIME SUMMARY AT END OF TIME STEP   18 IN STRESS PERIOD    2
                    SECONDS     MINUTES      HOURS       DAYS        YEARS
                    -----------------------------------------------------------
   TIME STEP LENGTH 1.72800E+05  2880.0      48.000      2.0000     5.47570E-03
 STRESS PERIOD TIME 3.11040E+06  51840.      864.00      36.000     9.85626E-02
         TOTAL TIME 2.03904E+07 3.39840E+05  5664.0      236.00     0.64613    


end timestep


start timestep kper="2" kstp="19" mode="normal"

 UBDSV1 SAVING     FLOW-JA-FACE ON UNIT   1030 AT TIME STEP     19, STRESS PERIOD      2
 UBDSV1 SAVING  STORAGE-AQUEOUS ON UNIT   1030 AT TIME STEP     19, STRESS PERIOD      2
 UBDSV06 SAVING  SOURCE-SINK MIX IN MODEL SVA_TM_T         PACKAGE SVA_TM_T        CONNECTED TO MODEL SVA_TM_T         PACKAGE SSM              ON UNIT   1030 AT TIME STEP     19, STRESS PERIOD      2

 CONCENTRATION WILL BE SAVED ON UNIT 1031 AT END OF TIME STEP   19, STRESS PERIOD    2


  MASS BUDGET FOR ENTIRE MODEL AT END OF TIME STEP   19, STRESS PERIOD   2
  ---------------------------------------------------------------------------------------------------

     CUMULATIVE MASS      M       RATES FOR THIS TIME STEP      M/T          PACKAGE NAME    
     ------------------                 ------------------------                     ----------------

           IN:                                      IN:
           ---                                      ---
     STORAGE-AQUEOUS =       2.3805E-05       STORAGE-AQUEOUS =       1.5453E-07     MST                              
                 WEL =           0.0000                   WEL =           0.0000     SSM_WEL1                         
                 WEL =           0.1190                   WEL =       5.0000E-04     SSM_WEL2                         

            TOTAL IN =           0.1190              TOTAL IN =       5.0015E-04

          OUT:                                     OUT:
          ----                                     ----
     STORAGE-AQUEOUS =       6.4232E-02       STORAGE-AQUEOUS =       2.1685E-04     MST                              
                 WEL =       5.4793E-02                   WEL =       2.8333E-04     SSM_WEL1                         
                 WEL =           0.0000                   WEL =           0.0000     SSM_WEL2                         

           TOTAL OUT =           0.1190             TOTAL OUT =       5.0017E-04

            IN - OUT =      -7.9328E-07              IN - OUT =      -1.8148E-08

 PERCENT DISCREPANCY =          -0.00     PERCENT DISCREPANCY =          -0.00




         TIME SUMMARY AT END OF TIME STEP   19 IN STRESS PERIOD    2
                    SECONDS     MINUTES      HOURS       DAYS        YEARS
                    -----------------------------------------------------------
   TIME STEP LENGTH 1.72800E+05  2880.0      48.000      2.0000     5.47570E-03
 STRESS PERIOD TIME 3.28320E+06  54720.      912.00      38.000     0.10404    
         TOTAL TIME 2.05632E+07 3.42720E+05  5712.0      238.00     0.65161    


end timestep


start timestep kper="2" kstp="20" mode="normal"

 UBDSV1 SAVING     FLOW-JA-FACE ON UNIT   1030 AT TIME STEP     20, STRESS PERIOD      2
 UBDSV1 SAVING  STORAGE-AQUEOUS ON UNIT   1030 AT TIME STEP     20, STRESS PERIOD      2
 UBDSV06 SAVING  SOURCE-SINK MIX IN MODEL SVA_TM_T         PACKAGE SVA_TM_T        CONNECTED TO MODEL SVA_TM_T         PACKAGE SSM              ON UNIT   1030 AT TIME STEP     20, STRESS PERIOD      2

 CONCENTRATION WILL BE SAVED ON UNIT 1031 AT END OF TIME STEP   20, STRESS PERIOD    2


  MASS BUDGET FOR ENTIRE MODEL AT END OF TIME STEP   20, STRESS PERIOD   2
  ---------------------------------------------------------------------------------------------------

     CUMULATIVE MASS      M       RATES FOR THIS TIME STEP      M/T          PACKAGE NAME    
     ------------------                 ------------------------                     ----------------

           IN:                                      IN:
           ---                                      ---
     STORAGE-AQUEOUS =       2.4083E-05       STORAGE-AQUEOUS =       1.3854E-07     MST                              
                 WEL =           0.0000                   WEL =           0.0000     SSM_WEL1                         
                 WEL =           0.1200                   WEL =       5.0000E-04     SSM_WEL2                         

            TOTAL IN =           0.1200              TOTAL IN =       5.0014E-04

          OUT:                                     OUT:
          ----                                     ----
     STORAGE-AQUEOUS =       6.4664E-02       STORAGE-AQUEOUS =       2.1596E-04     MST                              
                 WEL =       5.5361E-02                   WEL =       2.8418E-04     SSM_WEL1                         
                 WEL =           0.0000                   WEL =           0.0000     SSM_WEL2                         

           TOTAL OUT =           0.1200             TOTAL OUT =       5.0015E-04

            IN - OUT =      -8.0678E-07              IN - OUT =      -6.7498E-09

 PERCENT DISCREPANCY =          -0.00     PERCENT DISCREPANCY =          -0.00




         TIME SUMMARY AT END OF TIME STEP   20 IN STRESS PERIOD    2
                    SECONDS     MINUTES      HOURS       DAYS        YEARS
                    -----------------------------------------------------------
   TIME STEP LENGTH 1.72800E+05  2880.0      48.000      2.0000     5.47570E-03
 STRESS PERIOD TIME 3.45600E+06  57600.      960.00      40.000     0.10951    
         TOTAL TIME 2.07360E+07 3.45600E+05  5760.0      240.00     0.65708    


end timestep


start timestep kper="2" kstp="21" mode="normal"

 UBDSV1 SAVING     FLOW-JA-FACE ON UNIT   1030 AT TIME STEP     21, STRESS PERIOD      2
 UBDSV1 SAVING  STORAGE-AQUEOUS ON UNIT   1030 AT TIME STEP     21, STRESS PERIOD      2
 UBDSV06 SAVING  SOURCE-SINK MIX IN MODEL SVA_TM_T         PACKAGE SVA_TM_T        CONNECTED TO MODEL SVA_TM_T         PACKAGE SSM              ON UNIT   1030 AT TIME STEP     21, STRESS PERIOD      2

 CONCENTRATION WILL BE SAVED ON UNIT 1031 AT END OF TIME STEP   21, STRESS PERIOD    2


  MASS BUDGET FOR ENTIRE MODEL AT END OF TIME STEP   21, STRESS PERIOD   2
  ---------------------------------------------------------------------------------------------------

     CUMULATIVE MASS      M       RATES FOR THIS TIME STEP      M/T          PACKAGE NAME    
     ------------------                 ------------------------                     ----------------

           IN:                                      IN:
           ---                                      ---
     STORAGE-AQUEOUS =       2.4328E-05       STORAGE-AQUEOUS =       1.2264E-07     MST                              
                 WEL =           0.0000                   WEL =           0.0000     SSM_WEL1                         
                 WEL =           0.1210                   WEL =       5.0000E-04     SSM_WEL2                         

            TOTAL IN =           0.1210              TOTAL IN =       5.0012E-04

          OUT:                                     OUT:
          ----                                     ----
     STORAGE-AQUEOUS =       6.5094E-02       STORAGE-AQUEOUS =       2.1513E-04     MST                              
                 WEL =       5.5931E-02                   WEL =       2.8500E-04     SSM_WEL1                         
                 WEL =           0.0000                   WEL =           0.0000     SSM_WEL2                         

           TOTAL OUT =           0.1210             TOTAL OUT =       5.0013E-04

            IN - OUT =      -8.1771E-07              IN - OUT =      -5.4680E-09

 PERCENT DISCREPANCY =          -0.00     PERCENT DISCREPANCY =          -0.00




         TIME SUMMARY AT END OF TIME STEP   21 IN STRESS PERIOD    2
                    SECONDS     MINUTES      HOURS       DAYS        YEARS
                    -----------------------------------------------------------
   TIME STEP LENGTH 1.72800E+05  2880.0      48.000      2.0000     5.47570E-03
 STRESS PERIOD TIME 3.62880E+06  60480.      1008.0      42.000     0.11499    
         TOTAL TIME 2.09088E+07 3.48480E+05  5808.0      242.00     0.66256    


end timestep


start timestep kper="2" kstp="22" mode="normal"

 UBDSV1 SAVING     FLOW-JA-FACE ON UNIT   1030 AT TIME STEP     22, STRESS PERIOD      2
 UBDSV1 SAVING  STORAGE-AQUEOUS ON UNIT   1030 AT TIME STEP     22, STRESS PERIOD      2
 UBDSV06 SAVING  SOURCE-SINK MIX IN MODEL SVA_TM_T         PACKAGE SVA_TM_T        CONNECTED TO MODEL SVA_TM_T         PACKAGE SSM              ON UNIT   1030 AT TIME STEP     22, STRESS PERIOD      2

 CONCENTRATION WILL BE SAVED ON UNIT 1031 AT END OF TIME STEP   22, STRESS PERIOD    2


  MASS BUDGET FOR ENTIRE MODEL AT END OF TIME STEP   22, STRESS PERIOD   2
  ---------------------------------------------------------------------------------------------------

     CUMULATIVE MASS      M       RATES FOR THIS TIME STEP      M/T          PACKAGE NAME    
     ------------------                 ------------------------                     ----------------

           IN:                                      IN:
           ---                                      ---
     STORAGE-AQUEOUS =       2.4541E-05       STORAGE-AQUEOUS =       1.0682E-07     MST                              
                 WEL =           0.0000                   WEL =           0.0000     SSM_WEL1                         
                 WEL =           0.1220                   WEL =       5.0000E-04     SSM_WEL2                         

            TOTAL IN =           0.1220              TOTAL IN =       5.0011E-04

          OUT:                                     OUT:
          ----                                     ----
     STORAGE-AQUEOUS =       6.5523E-02       STORAGE-AQUEOUS =       2.1432E-04     MST                              
                 WEL =       5.6503E-02                   WEL =       2.8579E-04     SSM_WEL1                         
                 WEL =           0.0000                   WEL =           0.0000     SSM_WEL2                         

           TOTAL OUT =           0.1220             TOTAL OUT =       5.0011E-04

            IN - OUT =      -8.2795E-07              IN - OUT =      -5.1201E-09

 PERCENT DISCREPANCY =          -0.00     PERCENT DISCREPANCY =          -0.00




         TIME SUMMARY AT END OF TIME STEP   22 IN STRESS PERIOD    2
                    SECONDS     MINUTES      HOURS       DAYS        YEARS
                    -----------------------------------------------------------
   TIME STEP LENGTH 1.72800E+05  2880.0      48.000      2.0000     5.47570E-03
 STRESS PERIOD TIME 3.80160E+06  63360.      1056.0      44.000     0.12047    
         TOTAL TIME 2.10816E+07 3.51360E+05  5856.0      244.00     0.66804    


end timestep


start timestep kper="2" kstp="23" mode="normal"

 UBDSV1 SAVING     FLOW-JA-FACE ON UNIT   1030 AT TIME STEP     23, STRESS PERIOD      2
 UBDSV1 SAVING  STORAGE-AQUEOUS ON UNIT   1030 AT TIME STEP     23, STRESS PERIOD      2
 UBDSV06 SAVING  SOURCE-SINK MIX IN MODEL SVA_TM_T         PACKAGE SVA_TM_T        CONNECTED TO MODEL SVA_TM_T         PACKAGE SSM              ON UNIT   1030 AT TIME STEP     23, STRESS PERIOD      2

 CONCENTRATION WILL BE SAVED ON UNIT 1031 AT END OF TIME STEP   23, STRESS PERIOD    2


  MASS BUDGET FOR ENTIRE MODEL AT END OF TIME STEP   23, STRESS PERIOD   2
  ---------------------------------------------------------------------------------------------------

     CUMULATIVE MASS      M       RATES FOR THIS TIME STEP      M/T          PACKAGE NAME    
     ------------------                 ------------------------                     ----------------

           IN:                                      IN:
           ---                                      ---
     STORAGE-AQUEOUS =       2.4724E-05       STORAGE-AQUEOUS =       9.1087E-08     MST                              
                 WEL =           0.0000                   WEL =           0.0000     SSM_WEL1                         
                 WEL =           0.1230                   WEL =       5.0000E-04     SSM_WEL2                         

            TOTAL IN =           0.1230              TOTAL IN =       5.0009E-04

          OUT:                                     OUT:
          ----                                     ----
     STORAGE-AQUEOUS =       6.5950E-02       STORAGE-AQUEOUS =       2.1354E-04     MST                              
                 WEL =       5.7076E-02                   WEL =       2.8656E-04     SSM_WEL1                         
                 WEL =           0.0000                   WEL =           0.0000     SSM_WEL2                         

           TOTAL OUT =           0.1230             TOTAL OUT =       5.0010E-04

            IN - OUT =      -8.3877E-07              IN - OUT =      -5.4076E-09

 PERCENT DISCREPANCY =          -0.00     PERCENT DISCREPANCY =          -0.00




         TIME SUMMARY AT END OF TIME STEP   23 IN STRESS PERIOD    2
                    SECONDS     MINUTES      HOURS       DAYS        YEARS
                    -----------------------------------------------------------
   TIME STEP LENGTH 1.72800E+05  2880.0      48.000      2.0000     5.47570E-03
 STRESS PERIOD TIME 3.97440E+06  66240.      1104.0      46.000     0.12594    
         TOTAL TIME 2.12544E+07 3.54240E+05  5904.0      246.00     0.67351    


end timestep


start timestep kper="2" kstp="24" mode="normal"

 UBDSV1 SAVING     FLOW-JA-FACE ON UNIT   1030 AT TIME STEP     24, STRESS PERIOD      2
 UBDSV1 SAVING  STORAGE-AQUEOUS ON UNIT   1030 AT TIME STEP     24, STRESS PERIOD      2
 UBDSV06 SAVING  SOURCE-SINK MIX IN MODEL SVA_TM_T         PACKAGE SVA_TM_T        CONNECTED TO MODEL SVA_TM_T         PACKAGE SSM              ON UNIT   1030 AT TIME STEP     24, STRESS PERIOD      2

 CONCENTRATION WILL BE SAVED ON UNIT 1031 AT END OF TIME STEP   24, STRESS PERIOD    2


  MASS BUDGET FOR ENTIRE MODEL AT END OF TIME STEP   24, STRESS PERIOD   2
  ---------------------------------------------------------------------------------------------------

     CUMULATIVE MASS      M       RATES FOR THIS TIME STEP      M/T          PACKAGE NAME    
     ------------------                 ------------------------                     ----------------

           IN:                                      IN:
           ---                                      ---
     STORAGE-AQUEOUS =       2.4888E-05       STORAGE-AQUEOUS =       8.2169E-08     MST                              
                 WEL =           0.0000                   WEL =           0.0000     SSM_WEL1                         
                 WEL =           0.1240                   WEL =       5.0000E-04     SSM_WEL2                         

            TOTAL IN =           0.1240              TOTAL IN =       5.0008E-04

          OUT:                                     OUT:
          ----                                     ----
     STORAGE-AQUEOUS =       6.6375E-02       STORAGE-AQUEOUS =       2.1280E-04     MST                              
                 WEL =       5.7650E-02                   WEL =       2.8729E-04     SSM_WEL1                         
                 WEL =           0.0000                   WEL =           0.0000     SSM_WEL2                         

           TOTAL OUT =           0.1240             TOTAL OUT =       5.0009E-04

            IN - OUT =      -8.4873E-07              IN - OUT =      -4.9827E-09

 PERCENT DISCREPANCY =          -0.00     PERCENT DISCREPANCY =          -0.00




         TIME SUMMARY AT END OF TIME STEP   24 IN STRESS PERIOD    2
                    SECONDS     MINUTES      HOURS       DAYS        YEARS
                    -----------------------------------------------------------
   TIME STEP LENGTH 1.72800E+05  2880.0      48.000      2.0000     5.47570E-03
 STRESS PERIOD TIME 4.14720E+06  69120.      1152.0      48.000     0.13142    
         TOTAL TIME 2.14272E+07 3.57120E+05  5952.0      248.00     0.67899    


end timestep


start timestep kper="2" kstp="25" mode="normal"

 UBDSV1 SAVING     FLOW-JA-FACE ON UNIT   1030 AT TIME STEP     25, STRESS PERIOD      2
 UBDSV1 SAVING  STORAGE-AQUEOUS ON UNIT   1030 AT TIME STEP     25, STRESS PERIOD      2
 UBDSV06 SAVING  SOURCE-SINK MIX IN MODEL SVA_TM_T         PACKAGE SVA_TM_T        CONNECTED TO MODEL SVA_TM_T         PACKAGE SSM              ON UNIT   1030 AT TIME STEP     25, STRESS PERIOD      2

 CONCENTRATION WILL BE SAVED ON UNIT 1031 AT END OF TIME STEP   25, STRESS PERIOD    2


  MASS BUDGET FOR ENTIRE MODEL AT END OF TIME STEP   25, STRESS PERIOD   2
  ---------------------------------------------------------------------------------------------------

     CUMULATIVE MASS      M       RATES FOR THIS TIME STEP      M/T          PACKAGE NAME    
     ------------------                 ------------------------                     ----------------

           IN:                                      IN:
           ---                                      ---
     STORAGE-AQUEOUS =       2.5034E-05       STORAGE-AQUEOUS =       7.3241E-08     MST                              
                 WEL =           0.0000                   WEL =           0.0000     SSM_WEL1                         
                 WEL =           0.1250                   WEL =       5.0000E-04     SSM_WEL2                         

            TOTAL IN =           0.1250              TOTAL IN =       5.0007E-04

          OUT:                                     OUT:
          ----                                     ----
     STORAGE-AQUEOUS =       6.6800E-02       STORAGE-AQUEOUS =       2.1209E-04     MST                              
                 WEL =       5.8226E-02                   WEL =       2.8799E-04     SSM_WEL1                         
                 WEL =           0.0000                   WEL =           0.0000     SSM_WEL2                         

           TOTAL OUT =           0.1250             TOTAL OUT =       5.0008E-04

            IN - OUT =      -8.6106E-07              IN - OUT =      -6.1636E-09

 PERCENT DISCREPANCY =          -0.00     PERCENT DISCREPANCY =          -0.00




         TIME SUMMARY AT END OF TIME STEP   25 IN STRESS PERIOD    2
                    SECONDS     MINUTES      HOURS       DAYS        YEARS
                    -----------------------------------------------------------
   TIME STEP LENGTH 1.72800E+05  2880.0      48.000      2.0000     5.47570E-03
 STRESS PERIOD TIME 4.32000E+06  72000.      1200.0      50.000     0.13689    
         TOTAL TIME 2.16000E+07 3.60000E+05  6000.0      250.00     0.68446    


end timestep


start timestep kper="2" kstp="26" mode="normal"

 UBDSV1 SAVING     FLOW-JA-FACE ON UNIT   1030 AT TIME STEP     26, STRESS PERIOD      2
 UBDSV1 SAVING  STORAGE-AQUEOUS ON UNIT   1030 AT TIME STEP     26, STRESS PERIOD      2
 UBDSV06 SAVING  SOURCE-SINK MIX IN MODEL SVA_TM_T         PACKAGE SVA_TM_T        CONNECTED TO MODEL SVA_TM_T         PACKAGE SSM              ON UNIT   1030 AT TIME STEP     26, STRESS PERIOD      2

 CONCENTRATION WILL BE SAVED ON UNIT 1031 AT END OF TIME STEP   26, STRESS PERIOD    2


  MASS BUDGET FOR ENTIRE MODEL AT END OF TIME STEP   26, STRESS PERIOD   2
  ---------------------------------------------------------------------------------------------------

     CUMULATIVE MASS      M       RATES FOR THIS TIME STEP      M/T          PACKAGE NAME    
     ------------------                 ------------------------                     ----------------

           IN:                                      IN:
           ---                                      ---
     STORAGE-AQUEOUS =       2.5163E-05       STORAGE-AQUEOUS =       6.4301E-08     MST                              
                 WEL =           0.0000                   WEL =           0.0000     SSM_WEL1                         
                 WEL =           0.1260                   WEL =       5.0000E-04     SSM_WEL2                         

            TOTAL IN =           0.1260              TOTAL IN =       5.0006E-04

          OUT:                                     OUT:
          ----                                     ----
     STORAGE-AQUEOUS =       6.7222E-02       STORAGE-AQUEOUS =       2.1140E-04     MST                              
                 WEL =       5.8804E-02                   WEL =       2.8867E-04     SSM_WEL1                         
                 WEL =           0.0000                   WEL =           0.0000     SSM_WEL2                         

           TOTAL OUT =           0.1260             TOTAL OUT =       5.0007E-04

            IN - OUT =      -8.7603E-07              IN - OUT =      -7.4860E-09

 PERCENT DISCREPANCY =          -0.00     PERCENT DISCREPANCY =          -0.00




         TIME SUMMARY AT END OF TIME STEP   26 IN STRESS PERIOD    2
                    SECONDS     MINUTES      HOURS       DAYS        YEARS
                    -----------------------------------------------------------
   TIME STEP LENGTH 1.72800E+05  2880.0      48.000      2.0000     5.47570E-03
 STRESS PERIOD TIME 4.49280E+06  74880.      1248.0      52.000     0.14237    
         TOTAL TIME 2.17728E+07 3.62880E+05  6048.0      252.00     0.68994    


end timestep


start timestep kper="2" kstp="27" mode="normal"

 UBDSV1 SAVING     FLOW-JA-FACE ON UNIT   1030 AT TIME STEP     27, STRESS PERIOD      2
 UBDSV1 SAVING  STORAGE-AQUEOUS ON UNIT   1030 AT TIME STEP     27, STRESS PERIOD      2
 UBDSV06 SAVING  SOURCE-SINK MIX IN MODEL SVA_TM_T         PACKAGE SVA_TM_T        CONNECTED TO MODEL SVA_TM_T         PACKAGE SSM              ON UNIT   1030 AT TIME STEP     27, STRESS PERIOD      2

 CONCENTRATION WILL BE SAVED ON UNIT 1031 AT END OF TIME STEP   27, STRESS PERIOD    2


  MASS BUDGET FOR ENTIRE MODEL AT END OF TIME STEP   27, STRESS PERIOD   2
  ---------------------------------------------------------------------------------------------------

     CUMULATIVE MASS      M       RATES FOR THIS TIME STEP      M/T          PACKAGE NAME    
     ------------------                 ------------------------                     ----------------

           IN:                                      IN:
           ---                                      ---
     STORAGE-AQUEOUS =       2.5274E-05       STORAGE-AQUEOUS =       5.5346E-08     MST                              
                 WEL =           0.0000                   WEL =           0.0000     SSM_WEL1                         
                 WEL =           0.1270                   WEL =       5.0000E-04     SSM_WEL2                         

            TOTAL IN =           0.1270              TOTAL IN =       5.0006E-04

          OUT:                                     OUT:
          ----                                     ----
     STORAGE-AQUEOUS =       6.7644E-02       STORAGE-AQUEOUS =       2.1074E-04     MST                              
                 WEL =       5.9382E-02                   WEL =       2.8933E-04     SSM_WEL1                         
                 WEL =           0.0000                   WEL =           0.0000     SSM_WEL2                         

           TOTAL OUT =           0.1270             TOTAL OUT =       5.0006E-04

            IN - OUT =      -8.9289E-07              IN - OUT =      -8.4304E-09

 PERCENT DISCREPANCY =          -0.00     PERCENT DISCREPANCY =          -0.00




         TIME SUMMARY AT END OF TIME STEP   27 IN STRESS PERIOD    2
                    SECONDS     MINUTES      HOURS       DAYS        YEARS
                    -----------------------------------------------------------
   TIME STEP LENGTH 1.72800E+05  2880.0      48.000      2.0000     5.47570E-03
 STRESS PERIOD TIME 4.66560E+06  77760.      1296.0      54.000     0.14784    
         TOTAL TIME 2.19456E+07 3.65760E+05  6096.0      254.00     0.69541    


end timestep


start timestep kper="2" kstp="28" mode="normal"

 UBDSV1 SAVING     FLOW-JA-FACE ON UNIT   1030 AT TIME STEP     28, STRESS PERIOD      2
 UBDSV1 SAVING  STORAGE-AQUEOUS ON UNIT   1030 AT TIME STEP     28, STRESS PERIOD      2
 UBDSV06 SAVING  SOURCE-SINK MIX IN MODEL SVA_TM_T         PACKAGE SVA_TM_T        CONNECTED TO MODEL SVA_TM_T         PACKAGE SSM              ON UNIT   1030 AT TIME STEP     28, STRESS PERIOD      2

 CONCENTRATION WILL BE SAVED ON UNIT 1031 AT END OF TIME STEP   28, STRESS PERIOD    2


  MASS BUDGET FOR ENTIRE MODEL AT END OF TIME STEP   28, STRESS PERIOD   2
  ---------------------------------------------------------------------------------------------------

     CUMULATIVE MASS      M       RATES FOR THIS TIME STEP      M/T          PACKAGE NAME    
     ------------------                 ------------------------                     ----------------

           IN:                                      IN:
           ---                                      ---
     STORAGE-AQUEOUS =       2.5366E-05       STORAGE-AQUEOUS =       4.6378E-08     MST                              
                 WEL =           0.0000                   WEL =           0.0000     SSM_WEL1                         
                 WEL =           0.1280                   WEL =       5.0000E-04     SSM_WEL2                         

            TOTAL IN =           0.1280              TOTAL IN =       5.0005E-04

          OUT:                                     OUT:
          ----                                     ----
     STORAGE-AQUEOUS =       6.8064E-02       STORAGE-AQUEOUS =       2.1009E-04     MST                              
                 WEL =       5.9962E-02                   WEL =       2.8996E-04     SSM_WEL1                         
                 WEL =           0.0000                   WEL =           0.0000     SSM_WEL2                         

           TOTAL OUT =           0.1280             TOTAL OUT =       5.0006E-04

            IN - OUT =      -9.1111E-07              IN - OUT =      -9.1067E-09

 PERCENT DISCREPANCY =          -0.00     PERCENT DISCREPANCY =          -0.00




         TIME SUMMARY AT END OF TIME STEP   28 IN STRESS PERIOD    2
                    SECONDS     MINUTES      HOURS       DAYS        YEARS
                    -----------------------------------------------------------
   TIME STEP LENGTH 1.72800E+05  2880.0      48.000      2.0000     5.47570E-03
 STRESS PERIOD TIME 4.83840E+06  80640.      1344.0      56.000     0.15332    
         TOTAL TIME 2.21184E+07 3.68640E+05  6144.0      256.00     0.70089    


end timestep


start timestep kper="2" kstp="29" mode="normal"

 UBDSV1 SAVING     FLOW-JA-FACE ON UNIT   1030 AT TIME STEP     29, STRESS PERIOD      2
 UBDSV1 SAVING  STORAGE-AQUEOUS ON UNIT   1030 AT TIME STEP     29, STRESS PERIOD      2
 UBDSV06 SAVING  SOURCE-SINK MIX IN MODEL SVA_TM_T         PACKAGE SVA_TM_T        CONNECTED TO MODEL SVA_TM_T         PACKAGE SSM              ON UNIT   1030 AT TIME STEP     29, STRESS PERIOD      2

 CONCENTRATION WILL BE SAVED ON UNIT 1031 AT END OF TIME STEP   29, STRESS PERIOD    2


  MASS BUDGET FOR ENTIRE MODEL AT END OF TIME STEP   29, STRESS PERIOD   2
  ---------------------------------------------------------------------------------------------------

     CUMULATIVE MASS      M       RATES FOR THIS TIME STEP      M/T          PACKAGE NAME    
     ------------------                 ------------------------                     ----------------

           IN:                                      IN:
           ---                                      ---
     STORAGE-AQUEOUS =       2.5441E-05       STORAGE-AQUEOUS =       3.7399E-08     MST                              
                 WEL =           0.0000                   WEL =           0.0000     SSM_WEL1                         
                 WEL =           0.1290                   WEL =       5.0000E-04     SSM_WEL2                         

            TOTAL IN =           0.1290              TOTAL IN =       5.0004E-04

          OUT:                                     OUT:
          ----                                     ----
     STORAGE-AQUEOUS =       6.8483E-02       STORAGE-AQUEOUS =       2.0947E-04     MST                              
                 WEL =       6.0543E-02                   WEL =       2.9058E-04     SSM_WEL1                         
                 WEL =           0.0000                   WEL =           0.0000     SSM_WEL2                         

           TOTAL OUT =           0.1290             TOTAL OUT =       5.0005E-04

            IN - OUT =      -9.2965E-07              IN - OUT =      -9.2718E-09

 PERCENT DISCREPANCY =          -0.00     PERCENT DISCREPANCY =          -0.00




         TIME SUMMARY AT END OF TIME STEP   29 IN STRESS PERIOD    2
                    SECONDS     MINUTES      HOURS       DAYS        YEARS
                    -----------------------------------------------------------
   TIME STEP LENGTH 1.72800E+05  2880.0      48.000      2.0000     5.47570E-03
 STRESS PERIOD TIME 5.01120E+06  83520.      1392.0      58.000     0.15880    
         TOTAL TIME 2.22912E+07 3.71520E+05  6192.0      258.00     0.70637    


end timestep


start timestep kper="2" kstp="30" mode="normal"

 UBDSV1 SAVING     FLOW-JA-FACE ON UNIT   1030 AT TIME STEP     30, STRESS PERIOD      2
 UBDSV1 SAVING  STORAGE-AQUEOUS ON UNIT   1030 AT TIME STEP     30, STRESS PERIOD      2
 UBDSV06 SAVING  SOURCE-SINK MIX IN MODEL SVA_TM_T         PACKAGE SVA_TM_T        CONNECTED TO MODEL SVA_TM_T         PACKAGE SSM              ON UNIT   1030 AT TIME STEP     30, STRESS PERIOD      2

 CONCENTRATION WILL BE SAVED ON UNIT 1031 AT END OF TIME STEP   30, STRESS PERIOD    2


  MASS BUDGET FOR ENTIRE MODEL AT END OF TIME STEP   30, STRESS PERIOD   2
  ---------------------------------------------------------------------------------------------------

     CUMULATIVE MASS      M       RATES FOR THIS TIME STEP      M/T          PACKAGE NAME    
     ------------------                 ------------------------                     ----------------

           IN:                                      IN:
           ---                                      ---
     STORAGE-AQUEOUS =       2.5498E-05       STORAGE-AQUEOUS =       2.8411E-08     MST                              
                 WEL =           0.0000                   WEL =           0.0000     SSM_WEL1                         
                 WEL =           0.1300                   WEL =       5.0000E-04     SSM_WEL2                         

            TOTAL IN =           0.1300              TOTAL IN =       5.0003E-04

          OUT:                                     OUT:
          ----                                     ----
     STORAGE-AQUEOUS =       6.8901E-02       STORAGE-AQUEOUS =       2.0886E-04     MST                              
                 WEL =       6.1126E-02                   WEL =       2.9118E-04     SSM_WEL1                         
                 WEL =           0.0000                   WEL =           0.0000     SSM_WEL2                         

           TOTAL OUT =           0.1300             TOTAL OUT =       5.0004E-04

            IN - OUT =      -9.4770E-07              IN - OUT =      -9.0267E-09

 PERCENT DISCREPANCY =          -0.00     PERCENT DISCREPANCY =          -0.00




         TIME SUMMARY AT END OF TIME STEP   30 IN STRESS PERIOD    2
                    SECONDS     MINUTES      HOURS       DAYS        YEARS
                    -----------------------------------------------------------
   TIME STEP LENGTH 1.72800E+05  2880.0      48.000      2.0000     5.47570E-03
 STRESS PERIOD TIME 5.18400E+06  86400.      1440.0      60.000     0.16427    
         TOTAL TIME 2.24640E+07 3.74400E+05  6240.0      260.00     0.71184    


end timestep


start timestep kper="2" kstp="31" mode="normal"

 UBDSV1 SAVING     FLOW-JA-FACE ON UNIT   1030 AT TIME STEP     31, STRESS PERIOD      2
 UBDSV1 SAVING  STORAGE-AQUEOUS ON UNIT   1030 AT TIME STEP     31, STRESS PERIOD      2
 UBDSV06 SAVING  SOURCE-SINK MIX IN MODEL SVA_TM_T         PACKAGE SVA_TM_T        CONNECTED TO MODEL SVA_TM_T         PACKAGE SSM              ON UNIT   1030 AT TIME STEP     31, STRESS PERIOD      2

 CONCENTRATION WILL BE SAVED ON UNIT 1031 AT END OF TIME STEP   31, STRESS PERIOD    2


  MASS BUDGET FOR ENTIRE MODEL AT END OF TIME STEP   31, STRESS PERIOD   2
  ---------------------------------------------------------------------------------------------------

     CUMULATIVE MASS      M       RATES FOR THIS TIME STEP      M/T          PACKAGE NAME    
     ------------------                 ------------------------                     ----------------

           IN:                                      IN:
           ---                                      ---
     STORAGE-AQUEOUS =       2.5539E-05       STORAGE-AQUEOUS =       2.0687E-08     MST                              
                 WEL =           0.0000                   WEL =           0.0000     SSM_WEL1                         
                 WEL =           0.1310                   WEL =       5.0000E-04     SSM_WEL2                         

            TOTAL IN =           0.1310              TOTAL IN =       5.0002E-04

          OUT:                                     OUT:
          ----                                     ----
     STORAGE-AQUEOUS =       6.9317E-02       STORAGE-AQUEOUS =       2.0826E-04     MST                              
                 WEL =       6.1709E-02                   WEL =       2.9177E-04     SSM_WEL1                         
                 WEL =           0.0000                   WEL =           0.0000     SSM_WEL2                         

           TOTAL OUT =           0.1310             TOTAL OUT =       5.0003E-04

            IN - OUT =      -9.6451E-07              IN - OUT =      -8.4021E-09

 PERCENT DISCREPANCY =          -0.00     PERCENT DISCREPANCY =          -0.00




         TIME SUMMARY AT END OF TIME STEP   31 IN STRESS PERIOD    2
                    SECONDS     MINUTES      HOURS       DAYS        YEARS
                    -----------------------------------------------------------
   TIME STEP LENGTH 1.72800E+05  2880.0      48.000      2.0000     5.47570E-03
 STRESS PERIOD TIME 5.35680E+06  89280.      1488.0      62.000     0.16975    
         TOTAL TIME 2.26368E+07 3.77280E+05  6288.0      262.00     0.71732    


end timestep


start timestep kper="2" kstp="32" mode="normal"

 UBDSV1 SAVING     FLOW-JA-FACE ON UNIT   1030 AT TIME STEP     32, STRESS PERIOD      2
 UBDSV1 SAVING  STORAGE-AQUEOUS ON UNIT   1030 AT TIME STEP     32, STRESS PERIOD      2
 UBDSV06 SAVING  SOURCE-SINK MIX IN MODEL SVA_TM_T         PACKAGE SVA_TM_T        CONNECTED TO MODEL SVA_TM_T         PACKAGE SSM              ON UNIT   1030 AT TIME STEP     32, STRESS PERIOD      2

 CONCENTRATION WILL BE SAVED ON UNIT 1031 AT END OF TIME STEP   32, STRESS PERIOD    2


  MASS BUDGET FOR ENTIRE MODEL AT END OF TIME STEP   32, STRESS PERIOD   2
  ---------------------------------------------------------------------------------------------------

     CUMULATIVE MASS      M       RATES FOR THIS TIME STEP      M/T          PACKAGE NAME    
     ------------------                 ------------------------                     ----------------

           IN:                                      IN:
           ---                                      ---
     STORAGE-AQUEOUS =       2.5560E-05       STORAGE-AQUEOUS =       1.0428E-08     MST                              
                 WEL =           0.0000                   WEL =           0.0000     SSM_WEL1                         
                 WEL =           0.1320                   WEL =       5.0000E-04     SSM_WEL2                         

            TOTAL IN =           0.1320              TOTAL IN =       5.0001E-04

          OUT:                                     OUT:
          ----                                     ----
     STORAGE-AQUEOUS =       6.9733E-02       STORAGE-AQUEOUS =       2.0768E-04     MST                              
                 WEL =       6.2294E-02                   WEL =       2.9234E-04     SSM_WEL1                         
                 WEL =           0.0000                   WEL =           0.0000     SSM_WEL2                         

           TOTAL OUT =           0.1320             TOTAL OUT =       5.0002E-04

            IN - OUT =      -9.9192E-07              IN - OUT =      -1.3706E-08

 PERCENT DISCREPANCY =          -0.00     PERCENT DISCREPANCY =          -0.00




         TIME SUMMARY AT END OF TIME STEP   32 IN STRESS PERIOD    2
                    SECONDS     MINUTES      HOURS       DAYS        YEARS
                    -----------------------------------------------------------
   TIME STEP LENGTH 1.72800E+05  2880.0      48.000      2.0000     5.47570E-03
 STRESS PERIOD TIME 5.52960E+06  92160.      1536.0      64.000     0.17522    
         TOTAL TIME 2.28096E+07 3.80160E+05  6336.0      264.00     0.72279    


end timestep


start timestep kper="2" kstp="33" mode="normal"

 UBDSV1 SAVING     FLOW-JA-FACE ON UNIT   1030 AT TIME STEP     33, STRESS PERIOD      2
 UBDSV1 SAVING  STORAGE-AQUEOUS ON UNIT   1030 AT TIME STEP     33, STRESS PERIOD      2
 UBDSV06 SAVING  SOURCE-SINK MIX IN MODEL SVA_TM_T         PACKAGE SVA_TM_T        CONNECTED TO MODEL SVA_TM_T         PACKAGE SSM              ON UNIT   1030 AT TIME STEP     33, STRESS PERIOD      2

 CONCENTRATION WILL BE SAVED ON UNIT 1031 AT END OF TIME STEP   33, STRESS PERIOD    2


  MASS BUDGET FOR ENTIRE MODEL AT END OF TIME STEP   33, STRESS PERIOD   2
  ---------------------------------------------------------------------------------------------------

     CUMULATIVE MASS      M       RATES FOR THIS TIME STEP      M/T          PACKAGE NAME    
     ------------------                 ------------------------                     ----------------

           IN:                                      IN:
           ---                                      ---
     STORAGE-AQUEOUS =       2.5563E-05       STORAGE-AQUEOUS =       1.4396E-09     MST                              
                 WEL =           0.0000                   WEL =           0.0000     SSM_WEL1                         
                 WEL =           0.1330                   WEL =       5.0000E-04     SSM_WEL2                         

            TOTAL IN =           0.1330              TOTAL IN =       5.0000E-04

          OUT:                                     OUT:
          ----                                     ----
     STORAGE-AQUEOUS =       7.0147E-02       STORAGE-AQUEOUS =       2.0712E-04     MST                              
                 WEL =       6.2880E-02                   WEL =       2.9290E-04     SSM_WEL1                         
                 WEL =           0.0000                   WEL =           0.0000     SSM_WEL2                         

           TOTAL OUT =           0.1330             TOTAL OUT =       5.0001E-04

            IN - OUT =      -1.0188E-06              IN - OUT =      -1.3457E-08

 PERCENT DISCREPANCY =          -0.00     PERCENT DISCREPANCY =          -0.00




         TIME SUMMARY AT END OF TIME STEP   33 IN STRESS PERIOD    2
                    SECONDS     MINUTES      HOURS       DAYS        YEARS
                    -----------------------------------------------------------
   TIME STEP LENGTH 1.72800E+05  2880.0      48.000      2.0000     5.47570E-03
 STRESS PERIOD TIME 5.70240E+06  95040.      1584.0      66.000     0.18070    
         TOTAL TIME 2.29824E+07 3.83040E+05  6384.0      266.00     0.72827    


end timestep


start timestep kper="2" kstp="34" mode="normal"

 UBDSV1 SAVING     FLOW-JA-FACE ON UNIT   1030 AT TIME STEP     34, STRESS PERIOD      2
 UBDSV1 SAVING  STORAGE-AQUEOUS ON UNIT   1030 AT TIME STEP     34, STRESS PERIOD      2
 UBDSV06 SAVING  SOURCE-SINK MIX IN MODEL SVA_TM_T         PACKAGE SVA_TM_T        CONNECTED TO MODEL SVA_TM_T         PACKAGE SSM              ON UNIT   1030 AT TIME STEP     34, STRESS PERIOD      2

 CONCENTRATION WILL BE SAVED ON UNIT 1031 AT END OF TIME STEP   34, STRESS PERIOD    2


  MASS BUDGET FOR ENTIRE MODEL AT END OF TIME STEP   34, STRESS PERIOD   2
  ---------------------------------------------------------------------------------------------------

     CUMULATIVE MASS      M       RATES FOR THIS TIME STEP      M/T          PACKAGE NAME    
     ------------------                 ------------------------                     ----------------

           IN:                                      IN:
           ---                                      ---
     STORAGE-AQUEOUS =       2.5563E-05       STORAGE-AQUEOUS =       6.1660E-18     MST                              
                 WEL =           0.0000                   WEL =           0.0000     SSM_WEL1                         
                 WEL =           0.1340                   WEL =       5.0000E-04     SSM_WEL2                         

            TOTAL IN =           0.1340              TOTAL IN =       5.0000E-04

          OUT:                                     OUT:
          ----                                     ----
     STORAGE-AQUEOUS =       7.0560E-02       STORAGE-AQUEOUS =       2.0657E-04     MST                              
                 WEL =       6.3467E-02                   WEL =       2.9344E-04     SSM_WEL1                         
                 WEL =           0.0000                   WEL =           0.0000     SSM_WEL2                         

           TOTAL OUT =           0.1340             TOTAL OUT =       5.0001E-04

            IN - OUT =      -1.0452E-06              IN - OUT =      -1.3188E-08

 PERCENT DISCREPANCY =          -0.00     PERCENT DISCREPANCY =          -0.00




         TIME SUMMARY AT END OF TIME STEP   34 IN STRESS PERIOD    2
                    SECONDS     MINUTES      HOURS       DAYS        YEARS
                    -----------------------------------------------------------
   TIME STEP LENGTH 1.72800E+05  2880.0      48.000      2.0000     5.47570E-03
 STRESS PERIOD TIME 5.87520E+06  97920.      1632.0      68.000     0.18617    
         TOTAL TIME 2.31552E+07 3.85920E+05  6432.0      268.00     0.73374    


end timestep


start timestep kper="2" kstp="35" mode="normal"

 UBDSV1 SAVING     FLOW-JA-FACE ON UNIT   1030 AT TIME STEP     35, STRESS PERIOD      2
 UBDSV1 SAVING  STORAGE-AQUEOUS ON UNIT   1030 AT TIME STEP     35, STRESS PERIOD      2
 UBDSV06 SAVING  SOURCE-SINK MIX IN MODEL SVA_TM_T         PACKAGE SVA_TM_T        CONNECTED TO MODEL SVA_TM_T         PACKAGE SSM              ON UNIT   1030 AT TIME STEP     35, STRESS PERIOD      2

 CONCENTRATION WILL BE SAVED ON UNIT 1031 AT END OF TIME STEP   35, STRESS PERIOD    2


  MASS BUDGET FOR ENTIRE MODEL AT END OF TIME STEP   35, STRESS PERIOD   2
  ---------------------------------------------------------------------------------------------------

     CUMULATIVE MASS      M       RATES FOR THIS TIME STEP      M/T          PACKAGE NAME    
     ------------------                 ------------------------                     ----------------

           IN:                                      IN:
           ---                                      ---
     STORAGE-AQUEOUS =       2.5563E-05       STORAGE-AQUEOUS =       4.9862E-18     MST                              
                 WEL =           0.0000                   WEL =           0.0000     SSM_WEL1                         
                 WEL =           0.1350                   WEL =       5.0000E-04     SSM_WEL2                         

            TOTAL IN =           0.1350              TOTAL IN =       5.0000E-04

          OUT:                                     OUT:
          ----                                     ----
     STORAGE-AQUEOUS =       7.0972E-02       STORAGE-AQUEOUS =       2.0604E-04     MST                              
                 WEL =       6.4055E-02                   WEL =       2.9397E-04     SSM_WEL1                         
                 WEL =           0.0000                   WEL =           0.0000     SSM_WEL2                         

           TOTAL OUT =           0.1350             TOTAL OUT =       5.0001E-04

            IN - OUT =      -1.0711E-06              IN - OUT =      -1.2933E-08

 PERCENT DISCREPANCY =          -0.00     PERCENT DISCREPANCY =          -0.00




         TIME SUMMARY AT END OF TIME STEP   35 IN STRESS PERIOD    2
                    SECONDS     MINUTES      HOURS       DAYS        YEARS
                    -----------------------------------------------------------
   TIME STEP LENGTH 1.72800E+05  2880.0      48.000      2.0000     5.47570E-03
 STRESS PERIOD TIME 6.04800E+06 1.00800E+05  1680.0      70.000     0.19165    
         TOTAL TIME 2.33280E+07 3.88800E+05  6480.0      270.00     0.73922    


end timestep


start timestep kper="2" kstp="36" mode="normal"

 UBDSV1 SAVING     FLOW-JA-FACE ON UNIT   1030 AT TIME STEP     36, STRESS PERIOD      2
 UBDSV1 SAVING  STORAGE-AQUEOUS ON UNIT   1030 AT TIME STEP     36, STRESS PERIOD      2
 UBDSV06 SAVING  SOURCE-SINK MIX IN MODEL SVA_TM_T         PACKAGE SVA_TM_T        CONNECTED TO MODEL SVA_TM_T         PACKAGE SSM              ON UNIT   1030 AT TIME STEP     36, STRESS PERIOD      2

 CONCENTRATION WILL BE SAVED ON UNIT 1031 AT END OF TIME STEP   36, STRESS PERIOD    2


  MASS BUDGET FOR ENTIRE MODEL AT END OF TIME STEP   36, STRESS PERIOD   2
  ---------------------------------------------------------------------------------------------------

     CUMULATIVE MASS      M       RATES FOR THIS TIME STEP      M/T          PACKAGE NAME    
     ------------------                 ------------------------                     ----------------

           IN:                                      IN:
           ---                                      ---
     STORAGE-AQUEOUS =       2.5563E-05       STORAGE-AQUEOUS =       1.0125E-17     MST                              
                 WEL =           0.0000                   WEL =           0.0000     SSM_WEL1                         
                 WEL =           0.1360                   WEL =       5.0000E-04     SSM_WEL2                         

            TOTAL IN =           0.1360              TOTAL IN =       5.0000E-04

          OUT:                                     OUT:
          ----                                     ----
     STORAGE-AQUEOUS =       7.1383E-02       STORAGE-AQUEOUS =       2.0552E-04     MST                              
                 WEL =       6.4644E-02                   WEL =       2.9449E-04     SSM_WEL1                         
                 WEL =           0.0000                   WEL =           0.0000     SSM_WEL2                         

           TOTAL OUT =           0.1360             TOTAL OUT =       5.0001E-04

            IN - OUT =      -1.0966E-06              IN - OUT =      -1.2760E-08

 PERCENT DISCREPANCY =          -0.00     PERCENT DISCREPANCY =          -0.00




         TIME SUMMARY AT END OF TIME STEP   36 IN STRESS PERIOD    2
                    SECONDS     MINUTES      HOURS       DAYS        YEARS
                    -----------------------------------------------------------
   TIME STEP LENGTH 1.72800E+05  2880.0      48.000      2.0000     5.47570E-03
 STRESS PERIOD TIME 6.22080E+06 1.03680E+05  1728.0      72.000     0.19713    
         TOTAL TIME 2.35008E+07 3.91680E+05  6528.0      272.00     0.74470    


end timestep


start timestep kper="2" kstp="37" mode="normal"

 UBDSV1 SAVING     FLOW-JA-FACE ON UNIT   1030 AT TIME STEP     37, STRESS PERIOD      2
 UBDSV1 SAVING  STORAGE-AQUEOUS ON UNIT   1030 AT TIME STEP     37, STRESS PERIOD      2
 UBDSV06 SAVING  SOURCE-SINK MIX IN MODEL SVA_TM_T         PACKAGE SVA_TM_T        CONNECTED TO MODEL SVA_TM_T         PACKAGE SSM              ON UNIT   1030 AT TIME STEP     37, STRESS PERIOD      2

 CONCENTRATION WILL BE SAVED ON UNIT 1031 AT END OF TIME STEP   37, STRESS PERIOD    2


  MASS BUDGET FOR ENTIRE MODEL AT END OF TIME STEP   37, STRESS PERIOD   2
  ---------------------------------------------------------------------------------------------------

     CUMULATIVE MASS      M       RATES FOR THIS TIME STEP      M/T          PACKAGE NAME    
     ------------------                 ------------------------                     ----------------

           IN:                                      IN:
           ---                                      ---
     STORAGE-AQUEOUS =       2.5563E-05       STORAGE-AQUEOUS =       1.2251E-17     MST                              
                 WEL =           0.0000                   WEL =           0.0000     SSM_WEL1                         
                 WEL =           0.1370                   WEL =       5.0000E-04     SSM_WEL2                         

            TOTAL IN =           0.1370              TOTAL IN =       5.0000E-04

          OUT:                                     OUT:
          ----                                     ----
     STORAGE-AQUEOUS =       7.1793E-02       STORAGE-AQUEOUS =       2.0501E-04     MST                              
                 WEL =       6.5234E-02                   WEL =       2.9500E-04     SSM_WEL1                         
                 WEL =           0.0000                   WEL =           0.0000     SSM_WEL2                         

           TOTAL OUT =           0.1370             TOTAL OUT =       5.0001E-04

            IN - OUT =      -1.1216E-06              IN - OUT =      -1.2491E-08

 PERCENT DISCREPANCY =          -0.00     PERCENT DISCREPANCY =          -0.00




         TIME SUMMARY AT END OF TIME STEP   37 IN STRESS PERIOD    2
                    SECONDS     MINUTES      HOURS       DAYS        YEARS
                    -----------------------------------------------------------
   TIME STEP LENGTH 1.72800E+05  2880.0      48.000      2.0000     5.47570E-03
 STRESS PERIOD TIME 6.39360E+06 1.06560E+05  1776.0      74.000     0.20260    
         TOTAL TIME 2.36736E+07 3.94560E+05  6576.0      274.00     0.75017    


end timestep


start timestep kper="2" kstp="38" mode="normal"

 UBDSV1 SAVING     FLOW-JA-FACE ON UNIT   1030 AT TIME STEP     38, STRESS PERIOD      2
 UBDSV1 SAVING  STORAGE-AQUEOUS ON UNIT   1030 AT TIME STEP     38, STRESS PERIOD      2
 UBDSV06 SAVING  SOURCE-SINK MIX IN MODEL SVA_TM_T         PACKAGE SVA_TM_T        CONNECTED TO MODEL SVA_TM_T         PACKAGE SSM              ON UNIT   1030 AT TIME STEP     38, STRESS PERIOD      2

 CONCENTRATION WILL BE SAVED ON UNIT 1031 AT END OF TIME STEP   38, STRESS PERIOD    2


  MASS BUDGET FOR ENTIRE MODEL AT END OF TIME STEP   38, STRESS PERIOD   2
  ---------------------------------------------------------------------------------------------------

     CUMULATIVE MASS      M       RATES FOR THIS TIME STEP      M/T          PACKAGE NAME    
     ------------------                 ------------------------                     ----------------

           IN:                                      IN:
           ---                                      ---
     STORAGE-AQUEOUS =       2.5563E-05       STORAGE-AQUEOUS =       1.1944E-17     MST                              
                 WEL =           0.0000                   WEL =           0.0000     SSM_WEL1                         
                 WEL =           0.1380                   WEL =       5.0000E-04     SSM_WEL2                         

            TOTAL IN =           0.1380              TOTAL IN =       5.0000E-04

          OUT:                                     OUT:
          ----                                     ----
     STORAGE-AQUEOUS =       7.2202E-02       STORAGE-AQUEOUS =       2.0451E-04     MST                              
                 WEL =       6.5825E-02                   WEL =       2.9550E-04     SSM_WEL1                         
                 WEL =           0.0000                   WEL =           0.0000     SSM_WEL2                         

           TOTAL OUT =           0.1380             TOTAL OUT =       5.0001E-04

            IN - OUT =      -1.1462E-06              IN - OUT =      -1.2306E-08

 PERCENT DISCREPANCY =          -0.00     PERCENT DISCREPANCY =          -0.00




         TIME SUMMARY AT END OF TIME STEP   38 IN STRESS PERIOD    2
                    SECONDS     MINUTES      HOURS       DAYS        YEARS
                    -----------------------------------------------------------
   TIME STEP LENGTH 1.72800E+05  2880.0      48.000      2.0000     5.47570E-03
 STRESS PERIOD TIME 6.56640E+06 1.09440E+05  1824.0      76.000     0.20808    
         TOTAL TIME 2.38464E+07 3.97440E+05  6624.0      276.00     0.75565    


end timestep


start timestep kper="2" kstp="39" mode="normal"

 UBDSV1 SAVING     FLOW-JA-FACE ON UNIT   1030 AT TIME STEP     39, STRESS PERIOD      2
 UBDSV1 SAVING  STORAGE-AQUEOUS ON UNIT   1030 AT TIME STEP     39, STRESS PERIOD      2
 UBDSV06 SAVING  SOURCE-SINK MIX IN MODEL SVA_TM_T         PACKAGE SVA_TM_T        CONNECTED TO MODEL SVA_TM_T         PACKAGE SSM              ON UNIT   1030 AT TIME STEP     39, STRESS PERIOD      2

 CONCENTRATION WILL BE SAVED ON UNIT 1031 AT END OF TIME STEP   39, STRESS PERIOD    2


  MASS BUDGET FOR ENTIRE MODEL AT END OF TIME STEP   39, STRESS PERIOD   2
  ---------------------------------------------------------------------------------------------------

     CUMULATIVE MASS      M       RATES FOR THIS TIME STEP      M/T          PACKAGE NAME    
     ------------------                 ------------------------                     ----------------

           IN:                                      IN:
           ---                                      ---
     STORAGE-AQUEOUS =       2.5563E-05       STORAGE-AQUEOUS =       1.1042E-17     MST                              
                 WEL =           0.0000                   WEL =           0.0000     SSM_WEL1                         
                 WEL =           0.1390                   WEL =       5.0000E-04     SSM_WEL2                         

            TOTAL IN =           0.1390              TOTAL IN =       5.0000E-04

          OUT:                                     OUT:
          ----                                     ----
     STORAGE-AQUEOUS =       7.2610E-02       STORAGE-AQUEOUS =       2.0402E-04     MST                              
                 WEL =       6.6417E-02                   WEL =       2.9599E-04     SSM_WEL1                         
                 WEL =           0.0000                   WEL =           0.0000     SSM_WEL2                         

           TOTAL OUT =           0.1390             TOTAL OUT =       5.0001E-04

            IN - OUT =      -1.1705E-06              IN - OUT =      -1.2134E-08

 PERCENT DISCREPANCY =          -0.00     PERCENT DISCREPANCY =          -0.00




         TIME SUMMARY AT END OF TIME STEP   39 IN STRESS PERIOD    2
                    SECONDS     MINUTES      HOURS       DAYS        YEARS
                    -----------------------------------------------------------
   TIME STEP LENGTH 1.72800E+05  2880.0      48.000      2.0000     5.47570E-03
 STRESS PERIOD TIME 6.73920E+06 1.12320E+05  1872.0      78.000     0.21355    
         TOTAL TIME 2.40192E+07 4.00320E+05  6672.0      278.00     0.76112    


end timestep


start timestep kper="2" kstp="40" mode="normal"

 UBDSV1 SAVING     FLOW-JA-FACE ON UNIT   1030 AT TIME STEP     40, STRESS PERIOD      2
 UBDSV1 SAVING  STORAGE-AQUEOUS ON UNIT   1030 AT TIME STEP     40, STRESS PERIOD      2
 UBDSV06 SAVING  SOURCE-SINK MIX IN MODEL SVA_TM_T         PACKAGE SVA_TM_T        CONNECTED TO MODEL SVA_TM_T         PACKAGE SSM              ON UNIT   1030 AT TIME STEP     40, STRESS PERIOD      2

 CONCENTRATION WILL BE SAVED ON UNIT 1031 AT END OF TIME STEP   40, STRESS PERIOD    2


  MASS BUDGET FOR ENTIRE MODEL AT END OF TIME STEP   40, STRESS PERIOD   2
  ---------------------------------------------------------------------------------------------------

     CUMULATIVE MASS      M       RATES FOR THIS TIME STEP      M/T          PACKAGE NAME    
     ------------------                 ------------------------                     ----------------

           IN:                                      IN:
           ---                                      ---
     STORAGE-AQUEOUS =       2.5563E-05       STORAGE-AQUEOUS =       1.2132E-17     MST                              
                 WEL =           0.0000                   WEL =           0.0000     SSM_WEL1                         
                 WEL =           0.1400                   WEL =       5.0000E-04     SSM_WEL2                         

            TOTAL IN =           0.1400              TOTAL IN =       5.0000E-04

          OUT:                                     OUT:
          ----                                     ----
     STORAGE-AQUEOUS =       7.3017E-02       STORAGE-AQUEOUS =       2.0353E-04     MST                              
                 WEL =       6.7010E-02                   WEL =       2.9648E-04     SSM_WEL1                         
                 WEL =           0.0000                   WEL =           0.0000     SSM_WEL2                         

           TOTAL OUT =           0.1400             TOTAL OUT =       5.0001E-04

            IN - OUT =      -1.1943E-06              IN - OUT =      -1.1920E-08

 PERCENT DISCREPANCY =          -0.00     PERCENT DISCREPANCY =          -0.00




         TIME SUMMARY AT END OF TIME STEP   40 IN STRESS PERIOD    2
                    SECONDS     MINUTES      HOURS       DAYS        YEARS
                    -----------------------------------------------------------
   TIME STEP LENGTH 1.72800E+05  2880.0      48.000      2.0000     5.47570E-03
 STRESS PERIOD TIME 6.91200E+06 1.15200E+05  1920.0      80.000     0.21903    
         TOTAL TIME 2.41920E+07 4.03200E+05  6720.0      280.00     0.76660    


end timestep


start timestep kper="2" kstp="41" mode="normal"

 UBDSV1 SAVING     FLOW-JA-FACE ON UNIT   1030 AT TIME STEP     41, STRESS PERIOD      2
 UBDSV1 SAVING  STORAGE-AQUEOUS ON UNIT   1030 AT TIME STEP     41, STRESS PERIOD      2
 UBDSV06 SAVING  SOURCE-SINK MIX IN MODEL SVA_TM_T         PACKAGE SVA_TM_T        CONNECTED TO MODEL SVA_TM_T         PACKAGE SSM              ON UNIT   1030 AT TIME STEP     41, STRESS PERIOD      2

 CONCENTRATION WILL BE SAVED ON UNIT 1031 AT END OF TIME STEP   41, STRESS PERIOD    2


  MASS BUDGET FOR ENTIRE MODEL AT END OF TIME STEP   41, STRESS PERIOD   2
  ---------------------------------------------------------------------------------------------------

     CUMULATIVE MASS      M       RATES FOR THIS TIME STEP      M/T          PACKAGE NAME    
     ------------------                 ------------------------                     ----------------

           IN:                                      IN:
           ---                                      ---
     STORAGE-AQUEOUS =       2.5563E-05       STORAGE-AQUEOUS =       1.2336E-17     MST                              
                 WEL =           0.0000                   WEL =           0.0000     SSM_WEL1                         
                 WEL =           0.1410                   WEL =       5.0000E-04     SSM_WEL2                         

            TOTAL IN =           0.1410              TOTAL IN =       5.0000E-04

          OUT:                                     OUT:
          ----                                     ----
     STORAGE-AQUEOUS =       7.3423E-02       STORAGE-AQUEOUS =       2.0305E-04     MST                              
                 WEL =       6.7604E-02                   WEL =       2.9696E-04     SSM_WEL1                         
                 WEL =           0.0000                   WEL =           0.0000     SSM_WEL2                         

           TOTAL OUT =           0.1410             TOTAL OUT =       5.0001E-04

            IN - OUT =      -1.2179E-06              IN - OUT =      -1.1808E-08

 PERCENT DISCREPANCY =          -0.00     PERCENT DISCREPANCY =          -0.00




         TIME SUMMARY AT END OF TIME STEP   41 IN STRESS PERIOD    2
                    SECONDS     MINUTES      HOURS       DAYS        YEARS
                    -----------------------------------------------------------
   TIME STEP LENGTH 1.72800E+05  2880.0      48.000      2.0000     5.47570E-03
 STRESS PERIOD TIME 7.08480E+06 1.18080E+05  1968.0      82.000     0.22450    
         TOTAL TIME 2.43648E+07 4.06080E+05  6768.0      282.00     0.77207    


end timestep


start timestep kper="2" kstp="42" mode="normal"

 UBDSV1 SAVING     FLOW-JA-FACE ON UNIT   1030 AT TIME STEP     42, STRESS PERIOD      2
 UBDSV1 SAVING  STORAGE-AQUEOUS ON UNIT   1030 AT TIME STEP     42, STRESS PERIOD      2
 UBDSV06 SAVING  SOURCE-SINK MIX IN MODEL SVA_TM_T         PACKAGE SVA_TM_T        CONNECTED TO MODEL SVA_TM_T         PACKAGE SSM              ON UNIT   1030 AT TIME STEP     42, STRESS PERIOD      2

 CONCENTRATION WILL BE SAVED ON UNIT 1031 AT END OF TIME STEP   42, STRESS PERIOD    2


  MASS BUDGET FOR ENTIRE MODEL AT END OF TIME STEP   42, STRESS PERIOD   2
  ---------------------------------------------------------------------------------------------------

     CUMULATIVE MASS      M       RATES FOR THIS TIME STEP      M/T          PACKAGE NAME    
     ------------------                 ------------------------                     ----------------

           IN:                                      IN:
           ---                                      ---
     STORAGE-AQUEOUS =       2.5563E-05       STORAGE-AQUEOUS =       7.5938E-18     MST                              
                 WEL =           0.0000                   WEL =           0.0000     SSM_WEL1                         
                 WEL =           0.1420                   WEL =       5.0000E-04     SSM_WEL2                         

            TOTAL IN =           0.1420              TOTAL IN =       5.0000E-04

          OUT:                                     OUT:
          ----                                     ----
     STORAGE-AQUEOUS =       7.3828E-02       STORAGE-AQUEOUS =       2.0258E-04     MST                              
                 WEL =       6.8198E-02                   WEL =       2.9744E-04     SSM_WEL1                         
                 WEL =           0.0000                   WEL =           0.0000     SSM_WEL2                         

           TOTAL OUT =           0.1420             TOTAL OUT =       5.0001E-04

            IN - OUT =      -1.2409E-06              IN - OUT =      -1.1507E-08

 PERCENT DISCREPANCY =          -0.00     PERCENT DISCREPANCY =          -0.00




         TIME SUMMARY AT END OF TIME STEP   42 IN STRESS PERIOD    2
                    SECONDS     MINUTES      HOURS       DAYS        YEARS
                    -----------------------------------------------------------
   TIME STEP LENGTH 1.72800E+05  2880.0      48.000      2.0000     5.47570E-03
 STRESS PERIOD TIME 7.25760E+06 1.20960E+05  2016.0      84.000     0.22998    
         TOTAL TIME 2.45376E+07 4.08960E+05  6816.0      284.00     0.77755    


end timestep


start timestep kper="2" kstp="43" mode="normal"

 UBDSV1 SAVING     FLOW-JA-FACE ON UNIT   1030 AT TIME STEP     43, STRESS PERIOD      2
 UBDSV1 SAVING  STORAGE-AQUEOUS ON UNIT   1030 AT TIME STEP     43, STRESS PERIOD      2
 UBDSV06 SAVING  SOURCE-SINK MIX IN MODEL SVA_TM_T         PACKAGE SVA_TM_T        CONNECTED TO MODEL SVA_TM_T         PACKAGE SSM              ON UNIT   1030 AT TIME STEP     43, STRESS PERIOD      2

 CONCENTRATION WILL BE SAVED ON UNIT 1031 AT END OF TIME STEP   43, STRESS PERIOD    2


  MASS BUDGET FOR ENTIRE MODEL AT END OF TIME STEP   43, STRESS PERIOD   2
  ---------------------------------------------------------------------------------------------------

     CUMULATIVE MASS      M       RATES FOR THIS TIME STEP      M/T          PACKAGE NAME    
     ------------------                 ------------------------                     ----------------

           IN:                                      IN:
           ---                                      ---
     STORAGE-AQUEOUS =       2.5563E-05       STORAGE-AQUEOUS =       4.6013E-18     MST                              
                 WEL =           0.0000                   WEL =           0.0000     SSM_WEL1                         
                 WEL =           0.1430                   WEL =       5.0000E-04     SSM_WEL2                         

            TOTAL IN =           0.1430              TOTAL IN =       5.0000E-04

          OUT:                                     OUT:
          ----                                     ----
     STORAGE-AQUEOUS =       7.4233E-02       STORAGE-AQUEOUS =       2.0211E-04     MST                              
                 WEL =       6.8794E-02                   WEL =       2.9791E-04     SSM_WEL1                         
                 WEL =           0.0000                   WEL =           0.0000     SSM_WEL2                         

           TOTAL OUT =           0.1430             TOTAL OUT =       5.0001E-04

            IN - OUT =      -1.2637E-06              IN - OUT =      -1.1388E-08

 PERCENT DISCREPANCY =          -0.00     PERCENT DISCREPANCY =          -0.00




         TIME SUMMARY AT END OF TIME STEP   43 IN STRESS PERIOD    2
                    SECONDS     MINUTES      HOURS       DAYS        YEARS
                    -----------------------------------------------------------
   TIME STEP LENGTH 1.72800E+05  2880.0      48.000      2.0000     5.47570E-03
 STRESS PERIOD TIME 7.43040E+06 1.23840E+05  2064.0      86.000     0.23546    
         TOTAL TIME 2.47104E+07 4.11840E+05  6864.0      286.00     0.78303    


end timestep


start timestep kper="2" kstp="44" mode="normal"

 UBDSV1 SAVING     FLOW-JA-FACE ON UNIT   1030 AT TIME STEP     44, STRESS PERIOD      2
 UBDSV1 SAVING  STORAGE-AQUEOUS ON UNIT   1030 AT TIME STEP     44, STRESS PERIOD      2
 UBDSV06 SAVING  SOURCE-SINK MIX IN MODEL SVA_TM_T         PACKAGE SVA_TM_T        CONNECTED TO MODEL SVA_TM_T         PACKAGE SSM              ON UNIT   1030 AT TIME STEP     44, STRESS PERIOD      2

 CONCENTRATION WILL BE SAVED ON UNIT 1031 AT END OF TIME STEP   44, STRESS PERIOD    2


  MASS BUDGET FOR ENTIRE MODEL AT END OF TIME STEP   44, STRESS PERIOD   2
  ---------------------------------------------------------------------------------------------------

     CUMULATIVE MASS      M       RATES FOR THIS TIME STEP      M/T          PACKAGE NAME    
     ------------------                 ------------------------                     ----------------

           IN:                                      IN:
           ---                                      ---
     STORAGE-AQUEOUS =       2.5563E-05       STORAGE-AQUEOUS =       8.5917E-21     MST                              
                 WEL =           0.0000                   WEL =           0.0000     SSM_WEL1                         
                 WEL =           0.1440                   WEL =       5.0000E-04     SSM_WEL2                         

            TOTAL IN =           0.1440              TOTAL IN =       5.0000E-04

          OUT:                                     OUT:
          ----                                     ----
     STORAGE-AQUEOUS =       7.4636E-02       STORAGE-AQUEOUS =       2.0163E-04     MST                              
                 WEL =       6.9391E-02                   WEL =       2.9837E-04     SSM_WEL1                         
                 WEL =           0.0000                   WEL =           0.0000     SSM_WEL2                         

           TOTAL OUT =           0.1440             TOTAL OUT =       5.0000E-04

            IN - OUT =      -1.2723E-06              IN - OUT =      -4.2943E-09

 PERCENT DISCREPANCY =          -0.00     PERCENT DISCREPANCY =          -0.00




         TIME SUMMARY AT END OF TIME STEP   44 IN STRESS PERIOD    2
                    SECONDS     MINUTES      HOURS       DAYS        YEARS
                    -----------------------------------------------------------
   TIME STEP LENGTH 1.72800E+05  2880.0      48.000      2.0000     5.47570E-03
 STRESS PERIOD TIME 7.60320E+06 1.26720E+05  2112.0      88.000     0.24093    
         TOTAL TIME 2.48832E+07 4.14720E+05  6912.0      288.00     0.78850    


end timestep


start timestep kper="2" kstp="45" mode="normal"

 UBDSV1 SAVING     FLOW-JA-FACE ON UNIT   1030 AT TIME STEP     45, STRESS PERIOD      2
 UBDSV1 SAVING  STORAGE-AQUEOUS ON UNIT   1030 AT TIME STEP     45, STRESS PERIOD      2
 UBDSV06 SAVING  SOURCE-SINK MIX IN MODEL SVA_TM_T         PACKAGE SVA_TM_T        CONNECTED TO MODEL SVA_TM_T         PACKAGE SSM              ON UNIT   1030 AT TIME STEP     45, STRESS PERIOD      2

 CONCENTRATION WILL BE SAVED ON UNIT 1031 AT END OF TIME STEP   45, STRESS PERIOD    2


  MASS BUDGET FOR ENTIRE MODEL AT END OF TIME STEP   45, STRESS PERIOD   2
  ---------------------------------------------------------------------------------------------------

     CUMULATIVE MASS      M       RATES FOR THIS TIME STEP      M/T          PACKAGE NAME    
     ------------------                 ------------------------                     ----------------

           IN:                                      IN:
           ---                                      ---
     STORAGE-AQUEOUS =       2.5563E-05       STORAGE-AQUEOUS =       8.9137E-21     MST                              
                 WEL =           0.0000                   WEL =           0.0000     SSM_WEL1                         
                 WEL =           0.1450                   WEL =       5.0000E-04     SSM_WEL2                         

            TOTAL IN =           0.1450              TOTAL IN =       5.0000E-04

          OUT:                                     OUT:
          ----                                     ----
     STORAGE-AQUEOUS =       7.5038E-02       STORAGE-AQUEOUS =       2.0117E-04     MST                              
                 WEL =       6.9989E-02                   WEL =       2.9883E-04     SSM_WEL1                         
                 WEL =           0.0000                   WEL =           0.0000     SSM_WEL2                         

           TOTAL OUT =           0.1450             TOTAL OUT =       5.0000E-04

            IN - OUT =      -1.2792E-06              IN - OUT =      -3.4407E-09

 PERCENT DISCREPANCY =          -0.00     PERCENT DISCREPANCY =          -0.00




         TIME SUMMARY AT END OF TIME STEP   45 IN STRESS PERIOD    2
                    SECONDS     MINUTES      HOURS       DAYS        YEARS
                    -----------------------------------------------------------
   TIME STEP LENGTH 1.72800E+05  2880.0      48.000      2.0000     5.47570E-03
 STRESS PERIOD TIME 7.77600E+06 1.29600E+05  2160.0      90.000     0.24641    
         TOTAL TIME 2.50560E+07 4.17600E+05  6960.0      290.00     0.79398    


end timestep


start timestep kper="2" kstp="46" mode="normal"

 UBDSV1 SAVING     FLOW-JA-FACE ON UNIT   1030 AT TIME STEP     46, STRESS PERIOD      2
 UBDSV1 SAVING  STORAGE-AQUEOUS ON UNIT   1030 AT TIME STEP     46, STRESS PERIOD      2
 UBDSV06 SAVING  SOURCE-SINK MIX IN MODEL SVA_TM_T         PACKAGE SVA_TM_T        CONNECTED TO MODEL SVA_TM_T         PACKAGE SSM              ON UNIT   1030 AT TIME STEP     46, STRESS PERIOD      2

 CONCENTRATION WILL BE SAVED ON UNIT 1031 AT END OF TIME STEP   46, STRESS PERIOD    2


  MASS BUDGET FOR ENTIRE MODEL AT END OF TIME STEP   46, STRESS PERIOD   2
  ---------------------------------------------------------------------------------------------------

     CUMULATIVE MASS      M       RATES FOR THIS TIME STEP      M/T          PACKAGE NAME    
     ------------------                 ------------------------                     ----------------

           IN:                                      IN:
           ---                                      ---
     STORAGE-AQUEOUS =       2.5563E-05       STORAGE-AQUEOUS =           0.0000     MST                              
                 WEL =           0.0000                   WEL =           0.0000     SSM_WEL1                         
                 WEL =           0.1460                   WEL =       5.0000E-04     SSM_WEL2                         

            TOTAL IN =           0.1460              TOTAL IN =       5.0000E-04

          OUT:                                     OUT:
          ----                                     ----
     STORAGE-AQUEOUS =       7.5440E-02       STORAGE-AQUEOUS =       2.0071E-04     MST                              
                 WEL =       7.0587E-02                   WEL =       2.9929E-04     SSM_WEL1                         
                 WEL =           0.0000                   WEL =           0.0000     SSM_WEL2                         

           TOTAL OUT =           0.1460             TOTAL OUT =       5.0000E-04

            IN - OUT =      -1.2828E-06              IN - OUT =      -1.8191E-09

 PERCENT DISCREPANCY =          -0.00     PERCENT DISCREPANCY =          -0.00




         TIME SUMMARY AT END OF TIME STEP   46 IN STRESS PERIOD    2
                    SECONDS     MINUTES      HOURS       DAYS        YEARS
                    -----------------------------------------------------------
   TIME STEP LENGTH 1.72800E+05  2880.0      48.000      2.0000     5.47570E-03
 STRESS PERIOD TIME 7.94880E+06 1.32480E+05  2208.0      92.000     0.25188    
         TOTAL TIME 2.52288E+07 4.20480E+05  7008.0      292.00     0.79945    


end timestep


start timestep kper="2" kstp="47" mode="normal"

 UBDSV1 SAVING     FLOW-JA-FACE ON UNIT   1030 AT TIME STEP     47, STRESS PERIOD      2
 UBDSV1 SAVING  STORAGE-AQUEOUS ON UNIT   1030 AT TIME STEP     47, STRESS PERIOD      2
 UBDSV06 SAVING  SOURCE-SINK MIX IN MODEL SVA_TM_T         PACKAGE SVA_TM_T        CONNECTED TO MODEL SVA_TM_T         PACKAGE SSM              ON UNIT   1030 AT TIME STEP     47, STRESS PERIOD      2

 CONCENTRATION WILL BE SAVED ON UNIT 1031 AT END OF TIME STEP   47, STRESS PERIOD    2


  MASS BUDGET FOR ENTIRE MODEL AT END OF TIME STEP   47, STRESS PERIOD   2
  ---------------------------------------------------------------------------------------------------

     CUMULATIVE MASS      M       RATES FOR THIS TIME STEP      M/T          PACKAGE NAME    
     ------------------                 ------------------------                     ----------------

           IN:                                      IN:
           ---                                      ---
     STORAGE-AQUEOUS =       2.5563E-05       STORAGE-AQUEOUS =           0.0000     MST                              
                 WEL =           0.0000                   WEL =           0.0000     SSM_WEL1                         
                 WEL =           0.1470                   WEL =       5.0000E-04     SSM_WEL2                         

            TOTAL IN =           0.1470              TOTAL IN =       5.0000E-04

          OUT:                                     OUT:
          ----                                     ----
     STORAGE-AQUEOUS =       7.5840E-02       STORAGE-AQUEOUS =       2.0025E-04     MST                              
                 WEL =       7.1187E-02                   WEL =       2.9975E-04     SSM_WEL1                         
                 WEL =           0.0000                   WEL =           0.0000     SSM_WEL2                         

           TOTAL OUT =           0.1470             TOTAL OUT =       5.0000E-04

            IN - OUT =      -1.2850E-06              IN - OUT =      -1.0902E-09

 PERCENT DISCREPANCY =          -0.00     PERCENT DISCREPANCY =          -0.00




         TIME SUMMARY AT END OF TIME STEP   47 IN STRESS PERIOD    2
                    SECONDS     MINUTES      HOURS       DAYS        YEARS
                    -----------------------------------------------------------
   TIME STEP LENGTH 1.72800E+05  2880.0      48.000      2.0000     5.47570E-03
 STRESS PERIOD TIME 8.12160E+06 1.35360E+05  2256.0      94.000     0.25736    
         TOTAL TIME 2.54016E+07 4.23360E+05  7056.0      294.00     0.80493    


end timestep


start timestep kper="2" kstp="48" mode="normal"

 UBDSV1 SAVING     FLOW-JA-FACE ON UNIT   1030 AT TIME STEP     48, STRESS PERIOD      2
 UBDSV1 SAVING  STORAGE-AQUEOUS ON UNIT   1030 AT TIME STEP     48, STRESS PERIOD      2
 UBDSV06 SAVING  SOURCE-SINK MIX IN MODEL SVA_TM_T         PACKAGE SVA_TM_T        CONNECTED TO MODEL SVA_TM_T         PACKAGE SSM              ON UNIT   1030 AT TIME STEP     48, STRESS PERIOD      2

 CONCENTRATION WILL BE SAVED ON UNIT 1031 AT END OF TIME STEP   48, STRESS PERIOD    2


  MASS BUDGET FOR ENTIRE MODEL AT END OF TIME STEP   48, STRESS PERIOD   2
  ---------------------------------------------------------------------------------------------------

     CUMULATIVE MASS      M       RATES FOR THIS TIME STEP      M/T          PACKAGE NAME    
     ------------------                 ------------------------                     ----------------

           IN:                                      IN:
           ---                                      ---
     STORAGE-AQUEOUS =       2.5563E-05       STORAGE-AQUEOUS =       4.4730E-16     MST                              
                 WEL =           0.0000                   WEL =           0.0000     SSM_WEL1                         
                 WEL =           0.1480                   WEL =       5.0000E-04     SSM_WEL2                         

            TOTAL IN =           0.1480              TOTAL IN =       5.0000E-04

          OUT:                                     OUT:
          ----                                     ----
     STORAGE-AQUEOUS =       7.6240E-02       STORAGE-AQUEOUS =       1.9980E-04     MST                              
                 WEL =       7.1787E-02                   WEL =       3.0021E-04     SSM_WEL1                         
                 WEL =           0.0000                   WEL =           0.0000     SSM_WEL2                         

           TOTAL OUT =           0.1480             TOTAL OUT =       5.0000E-04

            IN - OUT =      -1.2937E-06              IN - OUT =      -4.3522E-09

 PERCENT DISCREPANCY =          -0.00     PERCENT DISCREPANCY =          -0.00




         TIME SUMMARY AT END OF TIME STEP   48 IN STRESS PERIOD    2
                    SECONDS     MINUTES      HOURS       DAYS        YEARS
                    -----------------------------------------------------------
   TIME STEP LENGTH 1.72800E+05  2880.0      48.000      2.0000     5.47570E-03
 STRESS PERIOD TIME 8.29440E+06 1.38240E+05  2304.0      96.000     0.26283    
         TOTAL TIME 2.55744E+07 4.26240E+05  7104.0      296.00     0.81040    


end timestep


start timestep kper="2" kstp="49" mode="normal"

 UBDSV1 SAVING     FLOW-JA-FACE ON UNIT   1030 AT TIME STEP     49, STRESS PERIOD      2
 UBDSV1 SAVING  STORAGE-AQUEOUS ON UNIT   1030 AT TIME STEP     49, STRESS PERIOD      2
 UBDSV06 SAVING  SOURCE-SINK MIX IN MODEL SVA_TM_T         PACKAGE SVA_TM_T        CONNECTED TO MODEL SVA_TM_T         PACKAGE SSM              ON UNIT   1030 AT TIME STEP     49, STRESS PERIOD      2

 CONCENTRATION WILL BE SAVED ON UNIT 1031 AT END OF TIME STEP   49, STRESS PERIOD    2


  MASS BUDGET FOR ENTIRE MODEL AT END OF TIME STEP   49, STRESS PERIOD   2
  ---------------------------------------------------------------------------------------------------

     CUMULATIVE MASS      M       RATES FOR THIS TIME STEP      M/T          PACKAGE NAME    
     ------------------                 ------------------------                     ----------------

           IN:                                      IN:
           ---                                      ---
     STORAGE-AQUEOUS =       2.5563E-05       STORAGE-AQUEOUS =       2.6948E-15     MST                              
                 WEL =           0.0000                   WEL =           0.0000     SSM_WEL1                         
                 WEL =           0.1490                   WEL =       5.0000E-04     SSM_WEL2                         

            TOTAL IN =           0.1490              TOTAL IN =       5.0000E-04

          OUT:                                     OUT:
          ----                                     ----
     STORAGE-AQUEOUS =       7.6638E-02       STORAGE-AQUEOUS =       1.9933E-04     MST                              
                 WEL =       7.2388E-02                   WEL =       3.0068E-04     SSM_WEL1                         
                 WEL =           0.0000                   WEL =           0.0000     SSM_WEL2                         

           TOTAL OUT =           0.1490             TOTAL OUT =       5.0001E-04

            IN - OUT =      -1.3062E-06              IN - OUT =      -6.2420E-09

 PERCENT DISCREPANCY =          -0.00     PERCENT DISCREPANCY =          -0.00




         TIME SUMMARY AT END OF TIME STEP   49 IN STRESS PERIOD    2
                    SECONDS     MINUTES      HOURS       DAYS        YEARS
                    -----------------------------------------------------------
   TIME STEP LENGTH 1.72800E+05  2880.0      48.000      2.0000     5.47570E-03
 STRESS PERIOD TIME 8.46720E+06 1.41120E+05  2352.0      98.000     0.26831    
         TOTAL TIME 2.57472E+07 4.29120E+05  7152.0      298.00     0.81588    


end timestep


start timestep kper="2" kstp="50" mode="normal"

 UBDSV1 SAVING     FLOW-JA-FACE ON UNIT   1030 AT TIME STEP     50, STRESS PERIOD      2
 UBDSV1 SAVING  STORAGE-AQUEOUS ON UNIT   1030 AT TIME STEP     50, STRESS PERIOD      2
 UBDSV06 SAVING  SOURCE-SINK MIX IN MODEL SVA_TM_T         PACKAGE SVA_TM_T        CONNECTED TO MODEL SVA_TM_T         PACKAGE SSM              ON UNIT   1030 AT TIME STEP     50, STRESS PERIOD      2

 CONCENTRATION WILL BE SAVED ON UNIT 1031 AT END OF TIME STEP   50, STRESS PERIOD    2


  MASS BUDGET FOR ENTIRE MODEL AT END OF TIME STEP   50, STRESS PERIOD   2
  ---------------------------------------------------------------------------------------------------

     CUMULATIVE MASS      M       RATES FOR THIS TIME STEP      M/T          PACKAGE NAME    
     ------------------                 ------------------------                     ----------------

           IN:                                      IN:
           ---                                      ---
     STORAGE-AQUEOUS =       2.5563E-05       STORAGE-AQUEOUS =       4.0768E-15     MST                              
                 WEL =           0.0000                   WEL =           0.0000     SSM_WEL1                         
                 WEL =           0.1500                   WEL =       5.0000E-04     SSM_WEL2                         

            TOTAL IN =           0.1500              TOTAL IN =       5.0000E-04

          OUT:                                     OUT:
          ----                                     ----
     STORAGE-AQUEOUS =       7.7036E-02       STORAGE-AQUEOUS =       1.9885E-04     MST                              
                 WEL =       7.2991E-02                   WEL =       3.0116E-04     SSM_WEL1                         
                 WEL =           0.0000                   WEL =           0.0000     SSM_WEL2                         

           TOTAL OUT =           0.1500             TOTAL OUT =       5.0001E-04

            IN - OUT =      -1.3192E-06              IN - OUT =      -6.4927E-09

 PERCENT DISCREPANCY =          -0.00     PERCENT DISCREPANCY =          -0.00




         TIME SUMMARY AT END OF TIME STEP   50 IN STRESS PERIOD    2
                    SECONDS     MINUTES      HOURS       DAYS        YEARS
                    -----------------------------------------------------------
   TIME STEP LENGTH 1.72800E+05  2880.0      48.000      2.0000     5.47570E-03
 STRESS PERIOD TIME 8.64000E+06 1.44000E+05  2400.0      100.00     0.27379    
         TOTAL TIME 2.59200E+07 4.32000E+05  7200.0      300.00     0.82136    


end timestep


start timestep kper="2" kstp="51" mode="normal"

 UBDSV1 SAVING     FLOW-JA-FACE ON UNIT   1030 AT TIME STEP     51, STRESS PERIOD      2
 UBDSV1 SAVING  STORAGE-AQUEOUS ON UNIT   1030 AT TIME STEP     51, STRESS PERIOD      2
 UBDSV06 SAVING  SOURCE-SINK MIX IN MODEL SVA_TM_T         PACKAGE SVA_TM_T        CONNECTED TO MODEL SVA_TM_T         PACKAGE SSM              ON UNIT   1030 AT TIME STEP     51, STRESS PERIOD      2

 CONCENTRATION WILL BE SAVED ON UNIT 1031 AT END OF TIME STEP   51, STRESS PERIOD    2


  MASS BUDGET FOR ENTIRE MODEL AT END OF TIME STEP   51, STRESS PERIOD   2
  ---------------------------------------------------------------------------------------------------

     CUMULATIVE MASS      M       RATES FOR THIS TIME STEP      M/T          PACKAGE NAME    
     ------------------                 ------------------------                     ----------------

           IN:                                      IN:
           ---                                      ---
     STORAGE-AQUEOUS =       2.5563E-05       STORAGE-AQUEOUS =       4.4320E-15     MST                              
                 WEL =           0.0000                   WEL =           0.0000     SSM_WEL1                         
                 WEL =           0.1510                   WEL =       5.0000E-04     SSM_WEL2                         

            TOTAL IN =           0.1510              TOTAL IN =       5.0000E-04

          OUT:                                     OUT:
          ----                                     ----
     STORAGE-AQUEOUS =       7.7433E-02       STORAGE-AQUEOUS =       1.9836E-04     MST                              
                 WEL =       7.3594E-02                   WEL =       3.0165E-04     SSM_WEL1                         
                 WEL =           0.0000                   WEL =           0.0000     SSM_WEL2                         

           TOTAL OUT =           0.1510             TOTAL OUT =       5.0001E-04

            IN - OUT =      -1.3400E-06              IN - OUT =      -1.0420E-08

 PERCENT DISCREPANCY =          -0.00     PERCENT DISCREPANCY =          -0.00




         TIME SUMMARY AT END OF TIME STEP   51 IN STRESS PERIOD    2
                    SECONDS     MINUTES      HOURS       DAYS        YEARS
                    -----------------------------------------------------------
   TIME STEP LENGTH 1.72800E+05  2880.0      48.000      2.0000     5.47570E-03
 STRESS PERIOD TIME 8.81280E+06 1.46880E+05  2448.0      102.00     0.27926    
         TOTAL TIME 2.60928E+07 4.34880E+05  7248.0      302.00     0.82683    


end timestep


start timestep kper="2" kstp="52" mode="normal"

 UBDSV1 SAVING     FLOW-JA-FACE ON UNIT   1030 AT TIME STEP     52, STRESS PERIOD      2
 UBDSV1 SAVING  STORAGE-AQUEOUS ON UNIT   1030 AT TIME STEP     52, STRESS PERIOD      2
 UBDSV06 SAVING  SOURCE-SINK MIX IN MODEL SVA_TM_T         PACKAGE SVA_TM_T        CONNECTED TO MODEL SVA_TM_T         PACKAGE SSM              ON UNIT   1030 AT TIME STEP     52, STRESS PERIOD      2

 CONCENTRATION WILL BE SAVED ON UNIT 1031 AT END OF TIME STEP   52, STRESS PERIOD    2


  MASS BUDGET FOR ENTIRE MODEL AT END OF TIME STEP   52, STRESS PERIOD   2
  ---------------------------------------------------------------------------------------------------

     CUMULATIVE MASS      M       RATES FOR THIS TIME STEP      M/T          PACKAGE NAME    
     ------------------                 ------------------------                     ----------------

           IN:                                      IN:
           ---                                      ---
     STORAGE-AQUEOUS =       2.5563E-05       STORAGE-AQUEOUS =       4.2558E-15     MST                              
                 WEL =           0.0000                   WEL =           0.0000     SSM_WEL1                         
                 WEL =           0.1520                   WEL =       5.0000E-04     SSM_WEL2                         

            TOTAL IN =           0.1520              TOTAL IN =       5.0000E-04

          OUT:                                     OUT:
          ----                                     ----
     STORAGE-AQUEOUS =       7.7829E-02       STORAGE-AQUEOUS =       1.9787E-04     MST                              
                 WEL =       7.4198E-02                   WEL =       3.0214E-04     SSM_WEL1                         
                 WEL =           0.0000                   WEL =           0.0000     SSM_WEL2                         

           TOTAL OUT =           0.1520             TOTAL OUT =       5.0001E-04

            IN - OUT =      -1.3605E-06              IN - OUT =      -1.0252E-08

 PERCENT DISCREPANCY =          -0.00     PERCENT DISCREPANCY =          -0.00




         TIME SUMMARY AT END OF TIME STEP   52 IN STRESS PERIOD    2
                    SECONDS     MINUTES      HOURS       DAYS        YEARS
                    -----------------------------------------------------------
   TIME STEP LENGTH 1.72800E+05  2880.0      48.000      2.0000     5.47570E-03
 STRESS PERIOD TIME 8.98560E+06 1.49760E+05  2496.0      104.00     0.28474    
         TOTAL TIME 2.62656E+07 4.37760E+05  7296.0      304.00     0.83231    


end timestep


start timestep kper="2" kstp="53" mode="normal"

 UBDSV1 SAVING     FLOW-JA-FACE ON UNIT   1030 AT TIME STEP     53, STRESS PERIOD      2
 UBDSV1 SAVING  STORAGE-AQUEOUS ON UNIT   1030 AT TIME STEP     53, STRESS PERIOD      2
 UBDSV06 SAVING  SOURCE-SINK MIX IN MODEL SVA_TM_T         PACKAGE SVA_TM_T        CONNECTED TO MODEL SVA_TM_T         PACKAGE SSM              ON UNIT   1030 AT TIME STEP     53, STRESS PERIOD      2

 CONCENTRATION WILL BE SAVED ON UNIT 1031 AT END OF TIME STEP   53, STRESS PERIOD    2


  MASS BUDGET FOR ENTIRE MODEL AT END OF TIME STEP   53, STRESS PERIOD   2
  ---------------------------------------------------------------------------------------------------

     CUMULATIVE MASS      M       RATES FOR THIS TIME STEP      M/T          PACKAGE NAME    
     ------------------                 ------------------------                     ----------------

           IN:                                      IN:
           ---                                      ---
     STORAGE-AQUEOUS =       2.5563E-05       STORAGE-AQUEOUS =       3.7624E-15     MST                              
                 WEL =           0.0000                   WEL =           0.0000     SSM_WEL1                         
                 WEL =           0.1530                   WEL =       5.0000E-04     SSM_WEL2                         

            TOTAL IN =           0.1530              TOTAL IN =       5.0000E-04

          OUT:                                     OUT:
          ----                                     ----
     STORAGE-AQUEOUS =       7.8223E-02       STORAGE-AQUEOUS =       1.9737E-04     MST                              
                 WEL =       7.4804E-02                   WEL =       3.0264E-04     SSM_WEL1                         
                 WEL =           0.0000                   WEL =           0.0000     SSM_WEL2                         

           TOTAL OUT =           0.1530             TOTAL OUT =       5.0001E-04

            IN - OUT =      -1.3810E-06              IN - OUT =      -1.0247E-08

 PERCENT DISCREPANCY =          -0.00     PERCENT DISCREPANCY =          -0.00




         TIME SUMMARY AT END OF TIME STEP   53 IN STRESS PERIOD    2
                    SECONDS     MINUTES      HOURS       DAYS        YEARS
                    -----------------------------------------------------------
   TIME STEP LENGTH 1.72800E+05  2880.0      48.000      2.0000     5.47570E-03
 STRESS PERIOD TIME 9.15840E+06 1.52640E+05  2544.0      106.00     0.29021    
         TOTAL TIME 2.64384E+07 4.40640E+05  7344.0      306.00     0.83778    


end timestep


start timestep kper="2" kstp="54" mode="normal"

 UBDSV1 SAVING     FLOW-JA-FACE ON UNIT   1030 AT TIME STEP     54, STRESS PERIOD      2
 UBDSV1 SAVING  STORAGE-AQUEOUS ON UNIT   1030 AT TIME STEP     54, STRESS PERIOD      2
 UBDSV06 SAVING  SOURCE-SINK MIX IN MODEL SVA_TM_T         PACKAGE SVA_TM_T        CONNECTED TO MODEL SVA_TM_T         PACKAGE SSM              ON UNIT   1030 AT TIME STEP     54, STRESS PERIOD      2

 CONCENTRATION WILL BE SAVED ON UNIT 1031 AT END OF TIME STEP   54, STRESS PERIOD    2


  MASS BUDGET FOR ENTIRE MODEL AT END OF TIME STEP   54, STRESS PERIOD   2
  ---------------------------------------------------------------------------------------------------

     CUMULATIVE MASS      M       RATES FOR THIS TIME STEP      M/T          PACKAGE NAME    
     ------------------                 ------------------------                     ----------------

           IN:                                      IN:
           ---                                      ---
     STORAGE-AQUEOUS =       2.5563E-05       STORAGE-AQUEOUS =       3.1326E-15     MST                              
                 WEL =           0.0000                   WEL =           0.0000     SSM_WEL1                         
                 WEL =           0.1540                   WEL =       5.0000E-04     SSM_WEL2                         

            TOTAL IN =           0.1540              TOTAL IN =       5.0000E-04

          OUT:                                     OUT:
          ----                                     ----
     STORAGE-AQUEOUS =       7.8617E-02       STORAGE-AQUEOUS =       1.9686E-04     MST                              
                 WEL =       7.5410E-02                   WEL =       3.0315E-04     SSM_WEL1                         
                 WEL =           0.0000                   WEL =           0.0000     SSM_WEL2                         

           TOTAL OUT =           0.1540             TOTAL OUT =       5.0001E-04

            IN - OUT =      -1.4014E-06              IN - OUT =      -1.0173E-08

 PERCENT DISCREPANCY =          -0.00     PERCENT DISCREPANCY =          -0.00




         TIME SUMMARY AT END OF TIME STEP   54 IN STRESS PERIOD    2
                    SECONDS     MINUTES      HOURS       DAYS        YEARS
                    -----------------------------------------------------------
   TIME STEP LENGTH 1.72800E+05  2880.0      48.000      2.0000     5.47570E-03
 STRESS PERIOD TIME 9.33120E+06 1.55520E+05  2592.0      108.00     0.29569    
         TOTAL TIME 2.66112E+07 4.43520E+05  7392.0      308.00     0.84326    


end timestep


start timestep kper="2" kstp="55" mode="normal"

 UBDSV1 SAVING     FLOW-JA-FACE ON UNIT   1030 AT TIME STEP     55, STRESS PERIOD      2
 UBDSV1 SAVING  STORAGE-AQUEOUS ON UNIT   1030 AT TIME STEP     55, STRESS PERIOD      2
 UBDSV06 SAVING  SOURCE-SINK MIX IN MODEL SVA_TM_T         PACKAGE SVA_TM_T        CONNECTED TO MODEL SVA_TM_T         PACKAGE SSM              ON UNIT   1030 AT TIME STEP     55, STRESS PERIOD      2

 CONCENTRATION WILL BE SAVED ON UNIT 1031 AT END OF TIME STEP   55, STRESS PERIOD    2


  MASS BUDGET FOR ENTIRE MODEL AT END OF TIME STEP   55, STRESS PERIOD   2
  ---------------------------------------------------------------------------------------------------

     CUMULATIVE MASS      M       RATES FOR THIS TIME STEP      M/T          PACKAGE NAME    
     ------------------                 ------------------------                     ----------------

           IN:                                      IN:
           ---                                      ---
     STORAGE-AQUEOUS =       2.5563E-05       STORAGE-AQUEOUS =       2.5282E-15     MST                              
                 WEL =           0.0000                   WEL =           0.0000     SSM_WEL1                         
                 WEL =           0.1550                   WEL =       5.0000E-04     SSM_WEL2                         

            TOTAL IN =           0.1550              TOTAL IN =       5.0000E-04

          OUT:                                     OUT:
          ----                                     ----
     STORAGE-AQUEOUS =       7.9010E-02       STORAGE-AQUEOUS =       1.9634E-04     MST                              
                 WEL =       7.6017E-02                   WEL =       3.0367E-04     SSM_WEL1                         
                 WEL =           0.0000                   WEL =           0.0000     SSM_WEL2                         

           TOTAL OUT =           0.1550             TOTAL OUT =       5.0001E-04

            IN - OUT =      -1.4213E-06              IN - OUT =      -9.9854E-09

 PERCENT DISCREPANCY =          -0.00     PERCENT DISCREPANCY =          -0.00




         TIME SUMMARY AT END OF TIME STEP   55 IN STRESS PERIOD    2
                    SECONDS     MINUTES      HOURS       DAYS        YEARS
                    -----------------------------------------------------------
   TIME STEP LENGTH 1.72800E+05  2880.0      48.000      2.0000     5.47570E-03
 STRESS PERIOD TIME 9.50400E+06 1.58400E+05  2640.0      110.00     0.30116    
         TOTAL TIME 2.67840E+07 4.46400E+05  7440.0      310.00     0.84873    


end timestep


start timestep kper="2" kstp="56" mode="normal"

 UBDSV1 SAVING     FLOW-JA-FACE ON UNIT   1030 AT TIME STEP     56, STRESS PERIOD      2
 UBDSV1 SAVING  STORAGE-AQUEOUS ON UNIT   1030 AT TIME STEP     56, STRESS PERIOD      2
 UBDSV06 SAVING  SOURCE-SINK MIX IN MODEL SVA_TM_T         PACKAGE SVA_TM_T        CONNECTED TO MODEL SVA_TM_T         PACKAGE SSM              ON UNIT   1030 AT TIME STEP     56, STRESS PERIOD      2

 CONCENTRATION WILL BE SAVED ON UNIT 1031 AT END OF TIME STEP   56, STRESS PERIOD    2


  MASS BUDGET FOR ENTIRE MODEL AT END OF TIME STEP   56, STRESS PERIOD   2
  ---------------------------------------------------------------------------------------------------

     CUMULATIVE MASS      M       RATES FOR THIS TIME STEP      M/T          PACKAGE NAME    
     ------------------                 ------------------------                     ----------------

           IN:                                      IN:
           ---                                      ---
     STORAGE-AQUEOUS =       2.5563E-05       STORAGE-AQUEOUS =       1.9563E-15     MST                              
                 WEL =           0.0000                   WEL =           0.0000     SSM_WEL1                         
                 WEL =           0.1560                   WEL =       5.0000E-04     SSM_WEL2                         

            TOTAL IN =           0.1560              TOTAL IN =       5.0000E-04

          OUT:                                     OUT:
          ----                                     ----
     STORAGE-AQUEOUS =       7.9401E-02       STORAGE-AQUEOUS =       1.9582E-04     MST                              
                 WEL =       7.6626E-02                   WEL =       3.0419E-04     SSM_WEL1                         
                 WEL =           0.0000                   WEL =           0.0000     SSM_WEL2                         

           TOTAL OUT =           0.1560             TOTAL OUT =       5.0001E-04

            IN - OUT =      -1.4409E-06              IN - OUT =      -9.8072E-09

 PERCENT DISCREPANCY =          -0.00     PERCENT DISCREPANCY =          -0.00




         TIME SUMMARY AT END OF TIME STEP   56 IN STRESS PERIOD    2
                    SECONDS     MINUTES      HOURS       DAYS        YEARS
                    -----------------------------------------------------------
   TIME STEP LENGTH 1.72800E+05  2880.0      48.000      2.0000     5.47570E-03
 STRESS PERIOD TIME 9.67680E+06 1.61280E+05  2688.0      112.00     0.30664    
         TOTAL TIME 2.69568E+07 4.49280E+05  7488.0      312.00     0.85421    


end timestep


start timestep kper="2" kstp="57" mode="normal"

 UBDSV1 SAVING     FLOW-JA-FACE ON UNIT   1030 AT TIME STEP     57, STRESS PERIOD      2
 UBDSV1 SAVING  STORAGE-AQUEOUS ON UNIT   1030 AT TIME STEP     57, STRESS PERIOD      2
 UBDSV06 SAVING  SOURCE-SINK MIX IN MODEL SVA_TM_T         PACKAGE SVA_TM_T        CONNECTED TO MODEL SVA_TM_T         PACKAGE SSM              ON UNIT   1030 AT TIME STEP     57, STRESS PERIOD      2

 CONCENTRATION WILL BE SAVED ON UNIT 1031 AT END OF TIME STEP   57, STRESS PERIOD    2


  MASS BUDGET FOR ENTIRE MODEL AT END OF TIME STEP   57, STRESS PERIOD   2
  ---------------------------------------------------------------------------------------------------

     CUMULATIVE MASS      M       RATES FOR THIS TIME STEP      M/T          PACKAGE NAME    
     ------------------                 ------------------------                     ----------------

           IN:                                      IN:
           ---                                      ---
     STORAGE-AQUEOUS =       2.5563E-05       STORAGE-AQUEOUS =       1.4924E-15     MST                              
                 WEL =           0.0000                   WEL =           0.0000     SSM_WEL1                         
                 WEL =           0.1570                   WEL =       5.0000E-04     SSM_WEL2                         

            TOTAL IN =           0.1570              TOTAL IN =       5.0000E-04

          OUT:                                     OUT:
          ----                                     ----
     STORAGE-AQUEOUS =       7.9792E-02       STORAGE-AQUEOUS =       1.9528E-04     MST                              
                 WEL =       7.7235E-02                   WEL =       3.0473E-04     SSM_WEL1                         
                 WEL =           0.0000                   WEL =           0.0000     SSM_WEL2                         

           TOTAL OUT =           0.1570             TOTAL OUT =       5.0001E-04

            IN - OUT =      -1.4603E-06              IN - OUT =      -9.6950E-09

 PERCENT DISCREPANCY =          -0.00     PERCENT DISCREPANCY =          -0.00




         TIME SUMMARY AT END OF TIME STEP   57 IN STRESS PERIOD    2
                    SECONDS     MINUTES      HOURS       DAYS        YEARS
                    -----------------------------------------------------------
   TIME STEP LENGTH 1.72800E+05  2880.0      48.000      2.0000     5.47570E-03
 STRESS PERIOD TIME 9.84960E+06 1.64160E+05  2736.0      114.00     0.31211    
         TOTAL TIME 2.71296E+07 4.52160E+05  7536.0      314.00     0.85969    


end timestep


start timestep kper="2" kstp="58" mode="normal"

 UBDSV1 SAVING     FLOW-JA-FACE ON UNIT   1030 AT TIME STEP     58, STRESS PERIOD      2
 UBDSV1 SAVING  STORAGE-AQUEOUS ON UNIT   1030 AT TIME STEP     58, STRESS PERIOD      2
 UBDSV06 SAVING  SOURCE-SINK MIX IN MODEL SVA_TM_T         PACKAGE SVA_TM_T        CONNECTED TO MODEL SVA_TM_T         PACKAGE SSM              ON UNIT   1030 AT TIME STEP     58, STRESS PERIOD      2

 CONCENTRATION WILL BE SAVED ON UNIT 1031 AT END OF TIME STEP   58, STRESS PERIOD    2


  MASS BUDGET FOR ENTIRE MODEL AT END OF TIME STEP   58, STRESS PERIOD   2
  ---------------------------------------------------------------------------------------------------

     CUMULATIVE MASS      M       RATES FOR THIS TIME STEP      M/T          PACKAGE NAME    
     ------------------                 ------------------------                     ----------------

           IN:                                      IN:
           ---                                      ---
     STORAGE-AQUEOUS =       2.5563E-05       STORAGE-AQUEOUS =       1.0559E-15     MST                              
                 WEL =           0.0000                   WEL =           0.0000     SSM_WEL1                         
                 WEL =           0.1580                   WEL =       5.0000E-04     SSM_WEL2                         

            TOTAL IN =           0.1580              TOTAL IN =       5.0000E-04

          OUT:                                     OUT:
          ----                                     ----
     STORAGE-AQUEOUS =       8.0181E-02       STORAGE-AQUEOUS =       1.9474E-04     MST                              
                 WEL =       7.7846E-02                   WEL =       3.0527E-04     SSM_WEL1                         
                 WEL =           0.0000                   WEL =           0.0000     SSM_WEL2                         

           TOTAL OUT =           0.1580             TOTAL OUT =       5.0001E-04

            IN - OUT =      -1.4794E-06              IN - OUT =      -9.5541E-09

 PERCENT DISCREPANCY =          -0.00     PERCENT DISCREPANCY =          -0.00




         TIME SUMMARY AT END OF TIME STEP   58 IN STRESS PERIOD    2
                    SECONDS     MINUTES      HOURS       DAYS        YEARS
                    -----------------------------------------------------------
   TIME STEP LENGTH 1.72800E+05  2880.0      48.000      2.0000     5.47570E-03
 STRESS PERIOD TIME 1.00224E+07 1.67040E+05  2784.0      116.00     0.31759    
         TOTAL TIME 2.73024E+07 4.55040E+05  7584.0      316.00     0.86516    


end timestep


start timestep kper="2" kstp="59" mode="normal"

 UBDSV1 SAVING     FLOW-JA-FACE ON UNIT   1030 AT TIME STEP     59, STRESS PERIOD      2
 UBDSV1 SAVING  STORAGE-AQUEOUS ON UNIT   1030 AT TIME STEP     59, STRESS PERIOD      2
 UBDSV06 SAVING  SOURCE-SINK MIX IN MODEL SVA_TM_T         PACKAGE SVA_TM_T        CONNECTED TO MODEL SVA_TM_T         PACKAGE SSM              ON UNIT   1030 AT TIME STEP     59, STRESS PERIOD      2

 CONCENTRATION WILL BE SAVED ON UNIT 1031 AT END OF TIME STEP   59, STRESS PERIOD    2


  MASS BUDGET FOR ENTIRE MODEL AT END OF TIME STEP   59, STRESS PERIOD   2
  ---------------------------------------------------------------------------------------------------

     CUMULATIVE MASS      M       RATES FOR THIS TIME STEP      M/T          PACKAGE NAME    
     ------------------                 ------------------------                     ----------------

           IN:                                      IN:
           ---                                      ---
     STORAGE-AQUEOUS =       2.5563E-05       STORAGE-AQUEOUS =       7.5552E-16     MST                              
                 WEL =           0.0000                   WEL =           0.0000     SSM_WEL1                         
                 WEL =           0.1590                   WEL =       5.0000E-04     SSM_WEL2                         

            TOTAL IN =           0.1590              TOTAL IN =       5.0000E-04

          OUT:                                     OUT:
          ----                                     ----
     STORAGE-AQUEOUS =       8.0570E-02       STORAGE-AQUEOUS =       1.9418E-04     MST                              
                 WEL =       7.8457E-02                   WEL =       3.0583E-04     SSM_WEL1                         
                 WEL =           0.0000                   WEL =           0.0000     SSM_WEL2                         

           TOTAL OUT =           0.1590             TOTAL OUT =       5.0001E-04

            IN - OUT =      -1.4983E-06              IN - OUT =      -9.4542E-09

 PERCENT DISCREPANCY =          -0.00     PERCENT DISCREPANCY =          -0.00




         TIME SUMMARY AT END OF TIME STEP   59 IN STRESS PERIOD    2
                    SECONDS     MINUTES      HOURS       DAYS        YEARS
                    -----------------------------------------------------------
   TIME STEP LENGTH 1.72800E+05  2880.0      48.000      2.0000     5.47570E-03
 STRESS PERIOD TIME 1.01952E+07 1.69920E+05  2832.0      118.00     0.32307    
         TOTAL TIME 2.74752E+07 4.57920E+05  7632.0      318.00     0.87064    


end timestep


start timestep kper="2" kstp="60" mode="normal"

 UBDSV1 SAVING     FLOW-JA-FACE ON UNIT   1030 AT TIME STEP     60, STRESS PERIOD      2
 UBDSV1 SAVING  STORAGE-AQUEOUS ON UNIT   1030 AT TIME STEP     60, STRESS PERIOD      2
 UBDSV06 SAVING  SOURCE-SINK MIX IN MODEL SVA_TM_T         PACKAGE SVA_TM_T        CONNECTED TO MODEL SVA_TM_T         PACKAGE SSM              ON UNIT   1030 AT TIME STEP     60, STRESS PERIOD      2

 CONCENTRATION WILL BE SAVED ON UNIT 1031 AT END OF TIME STEP   60, STRESS PERIOD    2


  MASS BUDGET FOR ENTIRE MODEL AT END OF TIME STEP   60, STRESS PERIOD   2
  ---------------------------------------------------------------------------------------------------

     CUMULATIVE MASS      M       RATES FOR THIS TIME STEP      M/T          PACKAGE NAME    
     ------------------                 ------------------------                     ----------------

           IN:                                      IN:
           ---                                      ---
     STORAGE-AQUEOUS =       2.5563E-05       STORAGE-AQUEOUS =       5.0931E-16     MST                              
                 WEL =           0.0000                   WEL =           0.0000     SSM_WEL1                         
                 WEL =           0.1600                   WEL =       5.0000E-04     SSM_WEL2                         

            TOTAL IN =           0.1600              TOTAL IN =       5.0000E-04

          OUT:                                     OUT:
          ----                                     ----
     STORAGE-AQUEOUS =       8.0957E-02       STORAGE-AQUEOUS =       1.9362E-04     MST                              
                 WEL =       7.9070E-02                   WEL =       3.0639E-04     SSM_WEL1                         
                 WEL =           0.0000                   WEL =           0.0000     SSM_WEL2                         

           TOTAL OUT =           0.1600             TOTAL OUT =       5.0001E-04

            IN - OUT =      -1.5170E-06              IN - OUT =      -9.3193E-09

 PERCENT DISCREPANCY =          -0.00     PERCENT DISCREPANCY =          -0.00




         TIME SUMMARY AT END OF TIME STEP   60 IN STRESS PERIOD    2
                    SECONDS     MINUTES      HOURS       DAYS        YEARS
                    -----------------------------------------------------------
   TIME STEP LENGTH 1.72800E+05  2880.0      48.000      2.0000     5.47570E-03
 STRESS PERIOD TIME 1.03680E+07 1.72800E+05  2880.0      120.00     0.32854    
         TOTAL TIME 2.76480E+07 4.60800E+05  7680.0      320.00     0.87611    


end timestep


start timestep kper="2" kstp="61" mode="normal"

 UBDSV1 SAVING     FLOW-JA-FACE ON UNIT   1030 AT TIME STEP     61, STRESS PERIOD      2
 UBDSV1 SAVING  STORAGE-AQUEOUS ON UNIT   1030 AT TIME STEP     61, STRESS PERIOD      2
 UBDSV06 SAVING  SOURCE-SINK MIX IN MODEL SVA_TM_T         PACKAGE SVA_TM_T        CONNECTED TO MODEL SVA_TM_T         PACKAGE SSM              ON UNIT   1030 AT TIME STEP     61, STRESS PERIOD      2

 CONCENTRATION WILL BE SAVED ON UNIT 1031 AT END OF TIME STEP   61, STRESS PERIOD    2


  MASS BUDGET FOR ENTIRE MODEL AT END OF TIME STEP   61, STRESS PERIOD   2
  ---------------------------------------------------------------------------------------------------

     CUMULATIVE MASS      M       RATES FOR THIS TIME STEP      M/T          PACKAGE NAME    
     ------------------                 ------------------------                     ----------------

           IN:                                      IN:
           ---                                      ---
     STORAGE-AQUEOUS =       2.5563E-05       STORAGE-AQUEOUS =       3.0941E-16     MST                              
                 WEL =           0.0000                   WEL =           0.0000     SSM_WEL1                         
                 WEL =           0.1610                   WEL =       5.0000E-04     SSM_WEL2                         

            TOTAL IN =           0.1610              TOTAL IN =       5.0000E-04

          OUT:                                     OUT:
          ----                                     ----
     STORAGE-AQUEOUS =       8.1343E-02       STORAGE-AQUEOUS =       1.9304E-04     MST                              
                 WEL =       7.9684E-02                   WEL =       3.0697E-04     SSM_WEL1                         
                 WEL =           0.0000                   WEL =           0.0000     SSM_WEL2                         

           TOTAL OUT =           0.1610             TOTAL OUT =       5.0001E-04

            IN - OUT =      -1.5352E-06              IN - OUT =      -9.1173E-09

 PERCENT DISCREPANCY =          -0.00     PERCENT DISCREPANCY =          -0.00




         TIME SUMMARY AT END OF TIME STEP   61 IN STRESS PERIOD    2
                    SECONDS     MINUTES      HOURS       DAYS        YEARS
                    -----------------------------------------------------------
   TIME STEP LENGTH 1.72800E+05  2880.0      48.000      2.0000     5.47570E-03
 STRESS PERIOD TIME 1.05408E+07 1.75680E+05  2928.0      122.00     0.33402    
         TOTAL TIME 2.78208E+07 4.63680E+05  7728.0      322.00     0.88159    


end timestep


start timestep kper="2" kstp="62" mode="normal"

 UBDSV1 SAVING     FLOW-JA-FACE ON UNIT   1030 AT TIME STEP     62, STRESS PERIOD      2
 UBDSV1 SAVING  STORAGE-AQUEOUS ON UNIT   1030 AT TIME STEP     62, STRESS PERIOD      2
 UBDSV06 SAVING  SOURCE-SINK MIX IN MODEL SVA_TM_T         PACKAGE SVA_TM_T        CONNECTED TO MODEL SVA_TM_T         PACKAGE SSM              ON UNIT   1030 AT TIME STEP     62, STRESS PERIOD      2

 CONCENTRATION WILL BE SAVED ON UNIT 1031 AT END OF TIME STEP   62, STRESS PERIOD    2


  MASS BUDGET FOR ENTIRE MODEL AT END OF TIME STEP   62, STRESS PERIOD   2
  ---------------------------------------------------------------------------------------------------

     CUMULATIVE MASS      M       RATES FOR THIS TIME STEP      M/T          PACKAGE NAME    
     ------------------                 ------------------------                     ----------------

           IN:                                      IN:
           ---                                      ---
     STORAGE-AQUEOUS =       2.5563E-05       STORAGE-AQUEOUS =       1.7176E-16     MST                              
                 WEL =           0.0000                   WEL =           0.0000     SSM_WEL1                         
                 WEL =           0.1620                   WEL =       5.0000E-04     SSM_WEL2                         

            TOTAL IN =           0.1620              TOTAL IN =       5.0000E-04

          OUT:                                     OUT:
          ----                                     ----
     STORAGE-AQUEOUS =       8.1728E-02       STORAGE-AQUEOUS =       1.9245E-04     MST                              
                 WEL =       8.0299E-02                   WEL =       3.0756E-04     SSM_WEL1                         
                 WEL =           0.0000                   WEL =           0.0000     SSM_WEL2                         

           TOTAL OUT =           0.1620             TOTAL OUT =       5.0001E-04

            IN - OUT =      -1.5532E-06              IN - OUT =      -8.9728E-09

 PERCENT DISCREPANCY =          -0.00     PERCENT DISCREPANCY =          -0.00




         TIME SUMMARY AT END OF TIME STEP   62 IN STRESS PERIOD    2
                    SECONDS     MINUTES      HOURS       DAYS        YEARS
                    -----------------------------------------------------------
   TIME STEP LENGTH 1.72800E+05  2880.0      48.000      2.0000     5.47570E-03
 STRESS PERIOD TIME 1.07136E+07 1.78560E+05  2976.0      124.00     0.33949    
         TOTAL TIME 2.79936E+07 4.66560E+05  7776.0      324.00     0.88706    


end timestep


start timestep kper="2" kstp="63" mode="normal"

 UBDSV1 SAVING     FLOW-JA-FACE ON UNIT   1030 AT TIME STEP     63, STRESS PERIOD      2
 UBDSV1 SAVING  STORAGE-AQUEOUS ON UNIT   1030 AT TIME STEP     63, STRESS PERIOD      2
 UBDSV06 SAVING  SOURCE-SINK MIX IN MODEL SVA_TM_T         PACKAGE SVA_TM_T        CONNECTED TO MODEL SVA_TM_T         PACKAGE SSM              ON UNIT   1030 AT TIME STEP     63, STRESS PERIOD      2

 CONCENTRATION WILL BE SAVED ON UNIT 1031 AT END OF TIME STEP   63, STRESS PERIOD    2


  MASS BUDGET FOR ENTIRE MODEL AT END OF TIME STEP   63, STRESS PERIOD   2
  ---------------------------------------------------------------------------------------------------

     CUMULATIVE MASS      M       RATES FOR THIS TIME STEP      M/T          PACKAGE NAME    
     ------------------                 ------------------------                     ----------------

           IN:                                      IN:
           ---                                      ---
     STORAGE-AQUEOUS =       2.5563E-05       STORAGE-AQUEOUS =       5.2875E-17     MST                              
                 WEL =           0.0000                   WEL =           0.0000     SSM_WEL1                         
                 WEL =           0.1630                   WEL =       5.0000E-04     SSM_WEL2                         

            TOTAL IN =           0.1630              TOTAL IN =       5.0000E-04

          OUT:                                     OUT:
          ----                                     ----
     STORAGE-AQUEOUS =       8.2112E-02       STORAGE-AQUEOUS =       1.9185E-04     MST                              
                 WEL =       8.0915E-02                   WEL =       3.0816E-04     SSM_WEL1                         
                 WEL =           0.0000                   WEL =           0.0000     SSM_WEL2                         

           TOTAL OUT =           0.1630             TOTAL OUT =       5.0001E-04

            IN - OUT =      -1.5709E-06              IN - OUT =      -8.8547E-09

 PERCENT DISCREPANCY =          -0.00     PERCENT DISCREPANCY =          -0.00




         TIME SUMMARY AT END OF TIME STEP   63 IN STRESS PERIOD    2
                    SECONDS     MINUTES      HOURS       DAYS        YEARS
                    -----------------------------------------------------------
   TIME STEP LENGTH 1.72800E+05  2880.0      48.000      2.0000     5.47570E-03
 STRESS PERIOD TIME 1.08864E+07 1.81440E+05  3024.0      126.00     0.34497    
         TOTAL TIME 2.81664E+07 4.69440E+05  7824.0      326.00     0.89254    


end timestep


start timestep kper="2" kstp="64" mode="normal"

 UBDSV1 SAVING     FLOW-JA-FACE ON UNIT   1030 AT TIME STEP     64, STRESS PERIOD      2
 UBDSV1 SAVING  STORAGE-AQUEOUS ON UNIT   1030 AT TIME STEP     64, STRESS PERIOD      2
 UBDSV06 SAVING  SOURCE-SINK MIX IN MODEL SVA_TM_T         PACKAGE SVA_TM_T        CONNECTED TO MODEL SVA_TM_T         PACKAGE SSM              ON UNIT   1030 AT TIME STEP     64, STRESS PERIOD      2

 CONCENTRATION WILL BE SAVED ON UNIT 1031 AT END OF TIME STEP   64, STRESS PERIOD    2


  MASS BUDGET FOR ENTIRE MODEL AT END OF TIME STEP   64, STRESS PERIOD   2
  ---------------------------------------------------------------------------------------------------

     CUMULATIVE MASS      M       RATES FOR THIS TIME STEP      M/T          PACKAGE NAME    
     ------------------                 ------------------------                     ----------------

           IN:                                      IN:
           ---                                      ---
     STORAGE-AQUEOUS =       2.5563E-05       STORAGE-AQUEOUS =           0.0000     MST                              
                 WEL =           0.0000                   WEL =           0.0000     SSM_WEL1                         
                 WEL =           0.1640                   WEL =       5.0000E-04     SSM_WEL2                         

            TOTAL IN =           0.1640              TOTAL IN =       5.0000E-04

          OUT:                                     OUT:
          ----                                     ----
     STORAGE-AQUEOUS =       8.2494E-02       STORAGE-AQUEOUS =       1.9123E-04     MST                              
                 WEL =       8.1533E-02                   WEL =       3.0877E-04     SSM_WEL1                         
                 WEL =           0.0000                   WEL =           0.0000     SSM_WEL2                         

           TOTAL OUT =           0.1640             TOTAL OUT =       5.0001E-04

            IN - OUT =      -1.5883E-06              IN - OUT =      -8.6933E-09

 PERCENT DISCREPANCY =          -0.00     PERCENT DISCREPANCY =          -0.00




         TIME SUMMARY AT END OF TIME STEP   64 IN STRESS PERIOD    2
                    SECONDS     MINUTES      HOURS       DAYS        YEARS
                    -----------------------------------------------------------
   TIME STEP LENGTH 1.72800E+05  2880.0      48.000      2.0000     5.47570E-03
 STRESS PERIOD TIME 1.10592E+07 1.84320E+05  3072.0      128.00     0.35044    
         TOTAL TIME 2.83392E+07 4.72320E+05  7872.0      328.00     0.89802    


end timestep


start timestep kper="2" kstp="65" mode="normal"

 UBDSV1 SAVING     FLOW-JA-FACE ON UNIT   1030 AT TIME STEP     65, STRESS PERIOD      2
 UBDSV1 SAVING  STORAGE-AQUEOUS ON UNIT   1030 AT TIME STEP     65, STRESS PERIOD      2
 UBDSV06 SAVING  SOURCE-SINK MIX IN MODEL SVA_TM_T         PACKAGE SVA_TM_T        CONNECTED TO MODEL SVA_TM_T         PACKAGE SSM              ON UNIT   1030 AT TIME STEP     65, STRESS PERIOD      2

 CONCENTRATION WILL BE SAVED ON UNIT 1031 AT END OF TIME STEP   65, STRESS PERIOD    2


  MASS BUDGET FOR ENTIRE MODEL AT END OF TIME STEP   65, STRESS PERIOD   2
  ---------------------------------------------------------------------------------------------------

     CUMULATIVE MASS      M       RATES FOR THIS TIME STEP      M/T          PACKAGE NAME    
     ------------------                 ------------------------                     ----------------

           IN:                                      IN:
           ---                                      ---
     STORAGE-AQUEOUS =       2.5563E-05       STORAGE-AQUEOUS =           0.0000     MST                              
                 WEL =           0.0000                   WEL =           0.0000     SSM_WEL1                         
                 WEL =           0.1650                   WEL =       5.0000E-04     SSM_WEL2                         

            TOTAL IN =           0.1650              TOTAL IN =       5.0000E-04

          OUT:                                     OUT:
          ----                                     ----
     STORAGE-AQUEOUS =       8.2875E-02       STORAGE-AQUEOUS =       1.9061E-04     MST                              
                 WEL =       8.2152E-02                   WEL =       3.0940E-04     SSM_WEL1                         
                 WEL =           0.0000                   WEL =           0.0000     SSM_WEL2                         

           TOTAL OUT =           0.1650             TOTAL OUT =       5.0001E-04

            IN - OUT =      -1.6054E-06              IN - OUT =      -8.5867E-09

 PERCENT DISCREPANCY =          -0.00     PERCENT DISCREPANCY =          -0.00




         TIME SUMMARY AT END OF TIME STEP   65 IN STRESS PERIOD    2
                    SECONDS     MINUTES      HOURS       DAYS        YEARS
                    -----------------------------------------------------------
   TIME STEP LENGTH 1.72800E+05  2880.0      48.000      2.0000     5.47570E-03
 STRESS PERIOD TIME 1.12320E+07 1.87200E+05  3120.0      130.00     0.35592    
         TOTAL TIME 2.85120E+07 4.75200E+05  7920.0      330.00     0.90349    


end timestep


start timestep kper="2" kstp="66" mode="normal"

 UBDSV1 SAVING     FLOW-JA-FACE ON UNIT   1030 AT TIME STEP     66, STRESS PERIOD      2
 UBDSV1 SAVING  STORAGE-AQUEOUS ON UNIT   1030 AT TIME STEP     66, STRESS PERIOD      2
 UBDSV06 SAVING  SOURCE-SINK MIX IN MODEL SVA_TM_T         PACKAGE SVA_TM_T        CONNECTED TO MODEL SVA_TM_T         PACKAGE SSM              ON UNIT   1030 AT TIME STEP     66, STRESS PERIOD      2

 CONCENTRATION WILL BE SAVED ON UNIT 1031 AT END OF TIME STEP   66, STRESS PERIOD    2


  MASS BUDGET FOR ENTIRE MODEL AT END OF TIME STEP   66, STRESS PERIOD   2
  ---------------------------------------------------------------------------------------------------

     CUMULATIVE MASS      M       RATES FOR THIS TIME STEP      M/T          PACKAGE NAME    
     ------------------                 ------------------------                     ----------------

           IN:                                      IN:
           ---                                      ---
     STORAGE-AQUEOUS =       2.5563E-05       STORAGE-AQUEOUS =       1.8894E-15     MST                              
                 WEL =           0.0000                   WEL =           0.0000     SSM_WEL1                         
                 WEL =           0.1660                   WEL =       5.0000E-04     SSM_WEL2                         

            TOTAL IN =           0.1660              TOTAL IN =       5.0000E-04

          OUT:                                     OUT:
          ----                                     ----
     STORAGE-AQUEOUS =       8.3255E-02       STORAGE-AQUEOUS =       1.8997E-04     MST                              
                 WEL =       8.2772E-02                   WEL =       3.1004E-04     SSM_WEL1                         
                 WEL =           0.0000                   WEL =           0.0000     SSM_WEL2                         

           TOTAL OUT =           0.1660             TOTAL OUT =       5.0001E-04

            IN - OUT =      -1.6222E-06              IN - OUT =      -8.4032E-09

 PERCENT DISCREPANCY =          -0.00     PERCENT DISCREPANCY =          -0.00




         TIME SUMMARY AT END OF TIME STEP   66 IN STRESS PERIOD    2
                    SECONDS     MINUTES      HOURS       DAYS        YEARS
                    -----------------------------------------------------------
   TIME STEP LENGTH 1.72800E+05  2880.0      48.000      2.0000     5.47570E-03
 STRESS PERIOD TIME 1.14048E+07 1.90080E+05  3168.0      132.00     0.36140    
         TOTAL TIME 2.86848E+07 4.78080E+05  7968.0      332.00     0.90897    


end timestep


start timestep kper="2" kstp="67" mode="normal"

 UBDSV1 SAVING     FLOW-JA-FACE ON UNIT   1030 AT TIME STEP     67, STRESS PERIOD      2
 UBDSV1 SAVING  STORAGE-AQUEOUS ON UNIT   1030 AT TIME STEP     67, STRESS PERIOD      2
 UBDSV06 SAVING  SOURCE-SINK MIX IN MODEL SVA_TM_T         PACKAGE SVA_TM_T        CONNECTED TO MODEL SVA_TM_T         PACKAGE SSM              ON UNIT   1030 AT TIME STEP     67, STRESS PERIOD      2

 CONCENTRATION WILL BE SAVED ON UNIT 1031 AT END OF TIME STEP   67, STRESS PERIOD    2


  MASS BUDGET FOR ENTIRE MODEL AT END OF TIME STEP   67, STRESS PERIOD   2
  ---------------------------------------------------------------------------------------------------

     CUMULATIVE MASS      M       RATES FOR THIS TIME STEP      M/T          PACKAGE NAME    
     ------------------                 ------------------------                     ----------------

           IN:                                      IN:
           ---                                      ---
     STORAGE-AQUEOUS =       2.5563E-05       STORAGE-AQUEOUS =       5.5486E-15     MST                              
                 WEL =           0.0000                   WEL =           0.0000     SSM_WEL1                         
                 WEL =           0.1670                   WEL =       5.0000E-04     SSM_WEL2                         

            TOTAL IN =           0.1670              TOTAL IN =       5.0000E-04

          OUT:                                     OUT:
          ----                                     ----
     STORAGE-AQUEOUS =       8.3634E-02       STORAGE-AQUEOUS =       1.8932E-04     MST                              
                 WEL =       8.3393E-02                   WEL =       3.1068E-04     SSM_WEL1                         
                 WEL =           0.0000                   WEL =           0.0000     SSM_WEL2                         

           TOTAL OUT =           0.1670             TOTAL OUT =       5.0001E-04

            IN - OUT =      -1.6387E-06              IN - OUT =      -8.2467E-09

 PERCENT DISCREPANCY =          -0.00     PERCENT DISCREPANCY =          -0.00




         TIME SUMMARY AT END OF TIME STEP   67 IN STRESS PERIOD    2
                    SECONDS     MINUTES      HOURS       DAYS        YEARS
                    -----------------------------------------------------------
   TIME STEP LENGTH 1.72800E+05  2880.0      48.000      2.0000     5.47570E-03
 STRESS PERIOD TIME 1.15776E+07 1.92960E+05  3216.0      134.00     0.36687    
         TOTAL TIME 2.88576E+07 4.80960E+05  8016.0      334.00     0.91444    


end timestep


start timestep kper="2" kstp="68" mode="normal"

 UBDSV1 SAVING     FLOW-JA-FACE ON UNIT   1030 AT TIME STEP     68, STRESS PERIOD      2
 UBDSV1 SAVING  STORAGE-AQUEOUS ON UNIT   1030 AT TIME STEP     68, STRESS PERIOD      2
 UBDSV06 SAVING  SOURCE-SINK MIX IN MODEL SVA_TM_T         PACKAGE SVA_TM_T        CONNECTED TO MODEL SVA_TM_T         PACKAGE SSM              ON UNIT   1030 AT TIME STEP     68, STRESS PERIOD      2

 CONCENTRATION WILL BE SAVED ON UNIT 1031 AT END OF TIME STEP   68, STRESS PERIOD    2


  MASS BUDGET FOR ENTIRE MODEL AT END OF TIME STEP   68, STRESS PERIOD   2
  ---------------------------------------------------------------------------------------------------

     CUMULATIVE MASS      M       RATES FOR THIS TIME STEP      M/T          PACKAGE NAME    
     ------------------                 ------------------------                     ----------------

           IN:                                      IN:
           ---                                      ---
     STORAGE-AQUEOUS =       2.5563E-05       STORAGE-AQUEOUS =       7.8576E-15     MST                              
                 WEL =           0.0000                   WEL =           0.0000     SSM_WEL1                         
                 WEL =           0.1680                   WEL =       5.0000E-04     SSM_WEL2                         

            TOTAL IN =           0.1680              TOTAL IN =       5.0000E-04

          OUT:                                     OUT:
          ----                                     ----
     STORAGE-AQUEOUS =       8.4011E-02       STORAGE-AQUEOUS =       1.8867E-04     MST                              
                 WEL =       8.4016E-02                   WEL =       3.1134E-04     SSM_WEL1                         
                 WEL =           0.0000                   WEL =           0.0000     SSM_WEL2                         

           TOTAL OUT =           0.1680             TOTAL OUT =       5.0001E-04

            IN - OUT =      -1.6552E-06              IN - OUT =      -8.2487E-09

 PERCENT DISCREPANCY =          -0.00     PERCENT DISCREPANCY =          -0.00




         TIME SUMMARY AT END OF TIME STEP   68 IN STRESS PERIOD    2
                    SECONDS     MINUTES      HOURS       DAYS        YEARS
                    -----------------------------------------------------------
   TIME STEP LENGTH 1.72800E+05  2880.0      48.000      2.0000     5.47570E-03
 STRESS PERIOD TIME 1.17504E+07 1.95840E+05  3264.0      136.00     0.37235    
         TOTAL TIME 2.90304E+07 4.83840E+05  8064.0      336.00     0.91992    


end timestep


start timestep kper="2" kstp="69" mode="normal"

 UBDSV1 SAVING     FLOW-JA-FACE ON UNIT   1030 AT TIME STEP     69, STRESS PERIOD      2
 UBDSV1 SAVING  STORAGE-AQUEOUS ON UNIT   1030 AT TIME STEP     69, STRESS PERIOD      2
 UBDSV06 SAVING  SOURCE-SINK MIX IN MODEL SVA_TM_T         PACKAGE SVA_TM_T        CONNECTED TO MODEL SVA_TM_T         PACKAGE SSM              ON UNIT   1030 AT TIME STEP     69, STRESS PERIOD      2

 CONCENTRATION WILL BE SAVED ON UNIT 1031 AT END OF TIME STEP   69, STRESS PERIOD    2


  MASS BUDGET FOR ENTIRE MODEL AT END OF TIME STEP   69, STRESS PERIOD   2
  ---------------------------------------------------------------------------------------------------

     CUMULATIVE MASS      M       RATES FOR THIS TIME STEP      M/T          PACKAGE NAME    
     ------------------                 ------------------------                     ----------------

           IN:                                      IN:
           ---                                      ---
     STORAGE-AQUEOUS =       2.5563E-05       STORAGE-AQUEOUS =       8.9195E-15     MST                              
                 WEL =           0.0000                   WEL =           0.0000     SSM_WEL1                         
                 WEL =           0.1690                   WEL =       5.0000E-04     SSM_WEL2                         

            TOTAL IN =           0.1690              TOTAL IN =       5.0000E-04

          OUT:                                     OUT:
          ----                                     ----
     STORAGE-AQUEOUS =       8.4387E-02       STORAGE-AQUEOUS =       1.8800E-04     MST                              
                 WEL =       8.4640E-02                   WEL =       3.1201E-04     SSM_WEL1                         
                 WEL =           0.0000                   WEL =           0.0000     SSM_WEL2                         

           TOTAL OUT =           0.1690             TOTAL OUT =       5.0001E-04

            IN - OUT =      -1.6715E-06              IN - OUT =      -8.1431E-09

 PERCENT DISCREPANCY =          -0.00     PERCENT DISCREPANCY =          -0.00




         TIME SUMMARY AT END OF TIME STEP   69 IN STRESS PERIOD    2
                    SECONDS     MINUTES      HOURS       DAYS        YEARS
                    -----------------------------------------------------------
   TIME STEP LENGTH 1.72800E+05  2880.0      48.000      2.0000     5.47570E-03
 STRESS PERIOD TIME 1.19232E+07 1.98720E+05  3312.0      138.00     0.37782    
         TOTAL TIME 2.92032E+07 4.86720E+05  8112.0      338.00     0.92539    


end timestep


start timestep kper="2" kstp="70" mode="normal"

 UBDSV1 SAVING     FLOW-JA-FACE ON UNIT   1030 AT TIME STEP     70, STRESS PERIOD      2
 UBDSV1 SAVING  STORAGE-AQUEOUS ON UNIT   1030 AT TIME STEP     70, STRESS PERIOD      2
 UBDSV06 SAVING  SOURCE-SINK MIX IN MODEL SVA_TM_T         PACKAGE SVA_TM_T        CONNECTED TO MODEL SVA_TM_T         PACKAGE SSM              ON UNIT   1030 AT TIME STEP     70, STRESS PERIOD      2

 CONCENTRATION WILL BE SAVED ON UNIT 1031 AT END OF TIME STEP   70, STRESS PERIOD    2


  MASS BUDGET FOR ENTIRE MODEL AT END OF TIME STEP   70, STRESS PERIOD   2
  ---------------------------------------------------------------------------------------------------

     CUMULATIVE MASS      M       RATES FOR THIS TIME STEP      M/T          PACKAGE NAME    
     ------------------                 ------------------------                     ----------------

           IN:                                      IN:
           ---                                      ---
     STORAGE-AQUEOUS =       2.5563E-05       STORAGE-AQUEOUS =       9.0830E-15     MST                              
                 WEL =           0.0000                   WEL =           0.0000     SSM_WEL1                         
                 WEL =           0.1700                   WEL =       5.0000E-04     SSM_WEL2                         

            TOTAL IN =           0.1700              TOTAL IN =       5.0000E-04

          OUT:                                     OUT:
          ----                                     ----
     STORAGE-AQUEOUS =       8.4762E-02       STORAGE-AQUEOUS =       1.8732E-04     MST                              
                 WEL =       8.5265E-02                   WEL =       3.1268E-04     SSM_WEL1                         
                 WEL =           0.0000                   WEL =           0.0000     SSM_WEL2                         

           TOTAL OUT =           0.1700             TOTAL OUT =       5.0001E-04

            IN - OUT =      -1.6877E-06              IN - OUT =      -8.0960E-09

 PERCENT DISCREPANCY =          -0.00     PERCENT DISCREPANCY =          -0.00




         TIME SUMMARY AT END OF TIME STEP   70 IN STRESS PERIOD    2
                    SECONDS     MINUTES      HOURS       DAYS        YEARS
                    -----------------------------------------------------------
   TIME STEP LENGTH 1.72800E+05  2880.0      48.000      2.0000     5.47570E-03
 STRESS PERIOD TIME 1.20960E+07 2.01600E+05  3360.0      140.00     0.38330    
         TOTAL TIME 2.93760E+07 4.89600E+05  8160.0      340.00     0.93087    


end timestep


start timestep kper="2" kstp="71" mode="normal"

 UBDSV1 SAVING     FLOW-JA-FACE ON UNIT   1030 AT TIME STEP     71, STRESS PERIOD      2
 UBDSV1 SAVING  STORAGE-AQUEOUS ON UNIT   1030 AT TIME STEP     71, STRESS PERIOD      2
 UBDSV06 SAVING  SOURCE-SINK MIX IN MODEL SVA_TM_T         PACKAGE SVA_TM_T        CONNECTED TO MODEL SVA_TM_T         PACKAGE SSM              ON UNIT   1030 AT TIME STEP     71, STRESS PERIOD      2

 CONCENTRATION WILL BE SAVED ON UNIT 1031 AT END OF TIME STEP   71, STRESS PERIOD    2


  MASS BUDGET FOR ENTIRE MODEL AT END OF TIME STEP   71, STRESS PERIOD   2
  ---------------------------------------------------------------------------------------------------

     CUMULATIVE MASS      M       RATES FOR THIS TIME STEP      M/T          PACKAGE NAME    
     ------------------                 ------------------------                     ----------------

           IN:                                      IN:
           ---                                      ---
     STORAGE-AQUEOUS =       2.5563E-05       STORAGE-AQUEOUS =       8.5577E-15     MST                              
                 WEL =           0.0000                   WEL =           0.0000     SSM_WEL1                         
                 WEL =           0.1710                   WEL =       5.0000E-04     SSM_WEL2                         

            TOTAL IN =           0.1710              TOTAL IN =       5.0000E-04

          OUT:                                     OUT:
          ----                                     ----
     STORAGE-AQUEOUS =       8.5135E-02       STORAGE-AQUEOUS =       1.8664E-04     MST                              
                 WEL =       8.5892E-02                   WEL =       3.1337E-04     SSM_WEL1                         
                 WEL =           0.0000                   WEL =           0.0000     SSM_WEL2                         

           TOTAL OUT =           0.1710             TOTAL OUT =       5.0001E-04

            IN - OUT =      -1.7037E-06              IN - OUT =      -7.9983E-09

 PERCENT DISCREPANCY =          -0.00     PERCENT DISCREPANCY =          -0.00




         TIME SUMMARY AT END OF TIME STEP   71 IN STRESS PERIOD    2
                    SECONDS     MINUTES      HOURS       DAYS        YEARS
                    -----------------------------------------------------------
   TIME STEP LENGTH 1.72800E+05  2880.0      48.000      2.0000     5.47570E-03
 STRESS PERIOD TIME 1.22688E+07 2.04480E+05  3408.0      142.00     0.38877    
         TOTAL TIME 2.95488E+07 4.92480E+05  8208.0      342.00     0.93634    


end timestep


start timestep kper="2" kstp="72" mode="normal"

 UBDSV1 SAVING     FLOW-JA-FACE ON UNIT   1030 AT TIME STEP     72, STRESS PERIOD      2
 UBDSV1 SAVING  STORAGE-AQUEOUS ON UNIT   1030 AT TIME STEP     72, STRESS PERIOD      2
 UBDSV06 SAVING  SOURCE-SINK MIX IN MODEL SVA_TM_T         PACKAGE SVA_TM_T        CONNECTED TO MODEL SVA_TM_T         PACKAGE SSM              ON UNIT   1030 AT TIME STEP     72, STRESS PERIOD      2

 CONCENTRATION WILL BE SAVED ON UNIT 1031 AT END OF TIME STEP   72, STRESS PERIOD    2


  MASS BUDGET FOR ENTIRE MODEL AT END OF TIME STEP   72, STRESS PERIOD   2
  ---------------------------------------------------------------------------------------------------

     CUMULATIVE MASS      M       RATES FOR THIS TIME STEP      M/T          PACKAGE NAME    
     ------------------                 ------------------------                     ----------------

           IN:                                      IN:
           ---                                      ---
     STORAGE-AQUEOUS =       2.5563E-05       STORAGE-AQUEOUS =       7.7297E-15     MST                              
                 WEL =           0.0000                   WEL =           0.0000     SSM_WEL1                         
                 WEL =           0.1720                   WEL =       5.0000E-04     SSM_WEL2                         

            TOTAL IN =           0.1720              TOTAL IN =       5.0000E-04

          OUT:                                     OUT:
          ----                                     ----
     STORAGE-AQUEOUS =       8.5507E-02       STORAGE-AQUEOUS =       1.8594E-04     MST                              
                 WEL =       8.6520E-02                   WEL =       3.1406E-04     SSM_WEL1                         
                 WEL =           0.0000                   WEL =           0.0000     SSM_WEL2                         

           TOTAL OUT =           0.1720             TOTAL OUT =       5.0001E-04

            IN - OUT =      -1.7195E-06              IN - OUT =      -7.8929E-09

 PERCENT DISCREPANCY =          -0.00     PERCENT DISCREPANCY =          -0.00




         TIME SUMMARY AT END OF TIME STEP   72 IN STRESS PERIOD    2
                    SECONDS     MINUTES      HOURS       DAYS        YEARS
                    -----------------------------------------------------------
   TIME STEP LENGTH 1.72800E+05  2880.0      48.000      2.0000     5.47570E-03
 STRESS PERIOD TIME 1.24416E+07 2.07360E+05  3456.0      144.00     0.39425    
         TOTAL TIME 2.97216E+07 4.95360E+05  8256.0      344.00     0.94182    


end timestep


start timestep kper="2" kstp="73" mode="normal"

 UBDSV1 SAVING     FLOW-JA-FACE ON UNIT   1030 AT TIME STEP     73, STRESS PERIOD      2
 UBDSV1 SAVING  STORAGE-AQUEOUS ON UNIT   1030 AT TIME STEP     73, STRESS PERIOD      2
 UBDSV06 SAVING  SOURCE-SINK MIX IN MODEL SVA_TM_T         PACKAGE SVA_TM_T        CONNECTED TO MODEL SVA_TM_T         PACKAGE SSM              ON UNIT   1030 AT TIME STEP     73, STRESS PERIOD      2

 CONCENTRATION WILL BE SAVED ON UNIT 1031 AT END OF TIME STEP   73, STRESS PERIOD    2


  MASS BUDGET FOR ENTIRE MODEL AT END OF TIME STEP   73, STRESS PERIOD   2
  ---------------------------------------------------------------------------------------------------

     CUMULATIVE MASS      M       RATES FOR THIS TIME STEP      M/T          PACKAGE NAME    
     ------------------                 ------------------------                     ----------------

           IN:                                      IN:
           ---                                      ---
     STORAGE-AQUEOUS =       2.5563E-05       STORAGE-AQUEOUS =       6.7885E-15     MST                              
                 WEL =           0.0000                   WEL =           0.0000     SSM_WEL1                         
                 WEL =           0.1730                   WEL =       5.0000E-04     SSM_WEL2                         

            TOTAL IN =           0.1730              TOTAL IN =       5.0000E-04

          OUT:                                     OUT:
          ----                                     ----
     STORAGE-AQUEOUS =       8.5878E-02       STORAGE-AQUEOUS =       1.8524E-04     MST                              
                 WEL =       8.7150E-02                   WEL =       3.1476E-04     SSM_WEL1                         
                 WEL =           0.0000                   WEL =           0.0000     SSM_WEL2                         

           TOTAL OUT =           0.1730             TOTAL OUT =       5.0001E-04

            IN - OUT =      -1.7351E-06              IN - OUT =      -7.8069E-09

 PERCENT DISCREPANCY =          -0.00     PERCENT DISCREPANCY =          -0.00




         TIME SUMMARY AT END OF TIME STEP   73 IN STRESS PERIOD    2
                    SECONDS     MINUTES      HOURS       DAYS        YEARS
                    -----------------------------------------------------------
   TIME STEP LENGTH 1.72800E+05  2880.0      48.000      2.0000     5.47570E-03
 STRESS PERIOD TIME 1.26144E+07 2.10240E+05  3504.0      146.00     0.39973    
         TOTAL TIME 2.98944E+07 4.98240E+05  8304.0      346.00     0.94730    


end timestep


start timestep kper="2" kstp="74" mode="normal"

 UBDSV1 SAVING     FLOW-JA-FACE ON UNIT   1030 AT TIME STEP     74, STRESS PERIOD      2
 UBDSV1 SAVING  STORAGE-AQUEOUS ON UNIT   1030 AT TIME STEP     74, STRESS PERIOD      2
 UBDSV06 SAVING  SOURCE-SINK MIX IN MODEL SVA_TM_T         PACKAGE SVA_TM_T        CONNECTED TO MODEL SVA_TM_T         PACKAGE SSM              ON UNIT   1030 AT TIME STEP     74, STRESS PERIOD      2

 CONCENTRATION WILL BE SAVED ON UNIT 1031 AT END OF TIME STEP   74, STRESS PERIOD    2


  MASS BUDGET FOR ENTIRE MODEL AT END OF TIME STEP   74, STRESS PERIOD   2
  ---------------------------------------------------------------------------------------------------

     CUMULATIVE MASS      M       RATES FOR THIS TIME STEP      M/T          PACKAGE NAME    
     ------------------                 ------------------------                     ----------------

           IN:                                      IN:
           ---                                      ---
     STORAGE-AQUEOUS =       2.5563E-05       STORAGE-AQUEOUS =       5.8883E-15     MST                              
                 WEL =           0.0000                   WEL =           0.0000     SSM_WEL1                         
                 WEL =           0.1740                   WEL =       5.0000E-04     SSM_WEL2                         

            TOTAL IN =           0.1740              TOTAL IN =       5.0000E-04

          OUT:                                     OUT:
          ----                                     ----
     STORAGE-AQUEOUS =       8.6247E-02       STORAGE-AQUEOUS =       1.8454E-04     MST                              
                 WEL =       8.7781E-02                   WEL =       3.1547E-04     SSM_WEL1                         
                 WEL =           0.0000                   WEL =           0.0000     SSM_WEL2                         

           TOTAL OUT =           0.1740             TOTAL OUT =       5.0001E-04

            IN - OUT =      -1.7505E-06              IN - OUT =      -7.7056E-09

 PERCENT DISCREPANCY =          -0.00     PERCENT DISCREPANCY =          -0.00




         TIME SUMMARY AT END OF TIME STEP   74 IN STRESS PERIOD    2
                    SECONDS     MINUTES      HOURS       DAYS        YEARS
                    -----------------------------------------------------------
   TIME STEP LENGTH 1.72800E+05  2880.0      48.000      2.0000     5.47570E-03
 STRESS PERIOD TIME 1.27872E+07 2.13120E+05  3552.0      148.00     0.40520    
         TOTAL TIME 3.00672E+07 5.01120E+05  8352.0      348.00     0.95277    


end timestep


start timestep kper="2" kstp="75" mode="normal"

 UBDSV1 SAVING     FLOW-JA-FACE ON UNIT   1030 AT TIME STEP     75, STRESS PERIOD      2
 UBDSV1 SAVING  STORAGE-AQUEOUS ON UNIT   1030 AT TIME STEP     75, STRESS PERIOD      2
 UBDSV06 SAVING  SOURCE-SINK MIX IN MODEL SVA_TM_T         PACKAGE SVA_TM_T        CONNECTED TO MODEL SVA_TM_T         PACKAGE SSM              ON UNIT   1030 AT TIME STEP     75, STRESS PERIOD      2

 CONCENTRATION WILL BE SAVED ON UNIT 1031 AT END OF TIME STEP   75, STRESS PERIOD    2


  MASS BUDGET FOR ENTIRE MODEL AT END OF TIME STEP   75, STRESS PERIOD   2
  ---------------------------------------------------------------------------------------------------

     CUMULATIVE MASS      M       RATES FOR THIS TIME STEP      M/T          PACKAGE NAME    
     ------------------                 ------------------------                     ----------------

           IN:                                      IN:
           ---                                      ---
     STORAGE-AQUEOUS =       2.5563E-05       STORAGE-AQUEOUS =       5.0864E-15     MST                              
                 WEL =           0.0000                   WEL =           0.0000     SSM_WEL1                         
                 WEL =           0.1750                   WEL =       5.0000E-04     SSM_WEL2                         

            TOTAL IN =           0.1750              TOTAL IN =       5.0000E-04

          OUT:                                     OUT:
          ----                                     ----
     STORAGE-AQUEOUS =       8.6614E-02       STORAGE-AQUEOUS =       1.8383E-04     MST                              
                 WEL =       8.8413E-02                   WEL =       3.1618E-04     SSM_WEL1                         
                 WEL =           0.0000                   WEL =           0.0000     SSM_WEL2                         

           TOTAL OUT =           0.1750             TOTAL OUT =       5.0001E-04

            IN - OUT =      -1.7656E-06              IN - OUT =      -7.5626E-09

 PERCENT DISCREPANCY =          -0.00     PERCENT DISCREPANCY =          -0.00




         TIME SUMMARY AT END OF TIME STEP   75 IN STRESS PERIOD    2
                    SECONDS     MINUTES      HOURS       DAYS        YEARS
                    -----------------------------------------------------------
   TIME STEP LENGTH 1.72800E+05  2880.0      48.000      2.0000     5.47570E-03
 STRESS PERIOD TIME 1.29600E+07 2.16000E+05  3600.0      150.00     0.41068    
         TOTAL TIME 3.02400E+07 5.04000E+05  8400.0      350.00     0.95825    


end timestep


start timestep kper="2" kstp="76" mode="normal"

 UBDSV1 SAVING     FLOW-JA-FACE ON UNIT   1030 AT TIME STEP     76, STRESS PERIOD      2
 UBDSV1 SAVING  STORAGE-AQUEOUS ON UNIT   1030 AT TIME STEP     76, STRESS PERIOD      2
 UBDSV06 SAVING  SOURCE-SINK MIX IN MODEL SVA_TM_T         PACKAGE SVA_TM_T        CONNECTED TO MODEL SVA_TM_T         PACKAGE SSM              ON UNIT   1030 AT TIME STEP     76, STRESS PERIOD      2

 CONCENTRATION WILL BE SAVED ON UNIT 1031 AT END OF TIME STEP   76, STRESS PERIOD    2


  MASS BUDGET FOR ENTIRE MODEL AT END OF TIME STEP   76, STRESS PERIOD   2
  ---------------------------------------------------------------------------------------------------

     CUMULATIVE MASS      M       RATES FOR THIS TIME STEP      M/T          PACKAGE NAME    
     ------------------                 ------------------------                     ----------------

           IN:                                      IN:
           ---                                      ---
     STORAGE-AQUEOUS =       2.5563E-05       STORAGE-AQUEOUS =       4.4146E-15     MST                              
                 WEL =           0.0000                   WEL =           0.0000     SSM_WEL1                         
                 WEL =           0.1760                   WEL =       5.0000E-04     SSM_WEL2                         

            TOTAL IN =           0.1760              TOTAL IN =       5.0000E-04

          OUT:                                     OUT:
          ----                                     ----
     STORAGE-AQUEOUS =       8.6981E-02       STORAGE-AQUEOUS =       1.8311E-04     MST                              
                 WEL =       8.9047E-02                   WEL =       3.1690E-04     SSM_WEL1                         
                 WEL =           0.0000                   WEL =           0.0000     SSM_WEL2                         

           TOTAL OUT =           0.1760             TOTAL OUT =       5.0001E-04

            IN - OUT =      -1.7805E-06              IN - OUT =      -7.4480E-09

 PERCENT DISCREPANCY =          -0.00     PERCENT DISCREPANCY =          -0.00




         TIME SUMMARY AT END OF TIME STEP   76 IN STRESS PERIOD    2
                    SECONDS     MINUTES      HOURS       DAYS        YEARS
                    -----------------------------------------------------------
   TIME STEP LENGTH 1.72800E+05  2880.0      48.000      2.0000     5.47570E-03
 STRESS PERIOD TIME 1.31328E+07 2.18880E+05  3648.0      152.00     0.41615    
         TOTAL TIME 3.04128E+07 5.06880E+05  8448.0      352.00     0.96372    


end timestep


start timestep kper="2" kstp="77" mode="normal"

 UBDSV1 SAVING     FLOW-JA-FACE ON UNIT   1030 AT TIME STEP     77, STRESS PERIOD      2
 UBDSV1 SAVING  STORAGE-AQUEOUS ON UNIT   1030 AT TIME STEP     77, STRESS PERIOD      2
 UBDSV06 SAVING  SOURCE-SINK MIX IN MODEL SVA_TM_T         PACKAGE SVA_TM_T        CONNECTED TO MODEL SVA_TM_T         PACKAGE SSM              ON UNIT   1030 AT TIME STEP     77, STRESS PERIOD      2

 CONCENTRATION WILL BE SAVED ON UNIT 1031 AT END OF TIME STEP   77, STRESS PERIOD    2


  MASS BUDGET FOR ENTIRE MODEL AT END OF TIME STEP   77, STRESS PERIOD   2
  ---------------------------------------------------------------------------------------------------

     CUMULATIVE MASS      M       RATES FOR THIS TIME STEP      M/T          PACKAGE NAME    
     ------------------                 ------------------------                     ----------------

           IN:                                      IN:
           ---                                      ---
     STORAGE-AQUEOUS =       2.5563E-05       STORAGE-AQUEOUS =       3.8381E-15     MST                              
                 WEL =           0.0000                   WEL =           0.0000     SSM_WEL1                         
                 WEL =           0.1770                   WEL =       5.0000E-04     SSM_WEL2                         

            TOTAL IN =           0.1770              TOTAL IN =       5.0000E-04

          OUT:                                     OUT:
          ----                                     ----
     STORAGE-AQUEOUS =       8.7345E-02       STORAGE-AQUEOUS =       1.8239E-04     MST                              
                 WEL =       8.9682E-02                   WEL =       3.1762E-04     SSM_WEL1                         
                 WEL =           0.0000                   WEL =           0.0000     SSM_WEL2                         

           TOTAL OUT =           0.1770             TOTAL OUT =       5.0001E-04

            IN - OUT =      -1.7952E-06              IN - OUT =      -7.3553E-09

 PERCENT DISCREPANCY =          -0.00     PERCENT DISCREPANCY =          -0.00




         TIME SUMMARY AT END OF TIME STEP   77 IN STRESS PERIOD    2
                    SECONDS     MINUTES      HOURS       DAYS        YEARS
                    -----------------------------------------------------------
   TIME STEP LENGTH 1.72800E+05  2880.0      48.000      2.0000     5.47570E-03
 STRESS PERIOD TIME 1.33056E+07 2.21760E+05  3696.0      154.00     0.42163    
         TOTAL TIME 3.05856E+07 5.09760E+05  8496.0      354.00     0.96920    


end timestep


start timestep kper="2" kstp="78" mode="normal"

 UBDSV1 SAVING     FLOW-JA-FACE ON UNIT   1030 AT TIME STEP     78, STRESS PERIOD      2
 UBDSV1 SAVING  STORAGE-AQUEOUS ON UNIT   1030 AT TIME STEP     78, STRESS PERIOD      2
 UBDSV06 SAVING  SOURCE-SINK MIX IN MODEL SVA_TM_T         PACKAGE SVA_TM_T        CONNECTED TO MODEL SVA_TM_T         PACKAGE SSM              ON UNIT   1030 AT TIME STEP     78, STRESS PERIOD      2

 CONCENTRATION WILL BE SAVED ON UNIT 1031 AT END OF TIME STEP   78, STRESS PERIOD    2


  MASS BUDGET FOR ENTIRE MODEL AT END OF TIME STEP   78, STRESS PERIOD   2
  ---------------------------------------------------------------------------------------------------

     CUMULATIVE MASS      M       RATES FOR THIS TIME STEP      M/T          PACKAGE NAME    
     ------------------                 ------------------------                     ----------------

           IN:                                      IN:
           ---                                      ---
     STORAGE-AQUEOUS =       2.5563E-05       STORAGE-AQUEOUS =       3.3628E-15     MST                              
                 WEL =           0.0000                   WEL =           0.0000     SSM_WEL1                         
                 WEL =           0.1780                   WEL =       5.0000E-04     SSM_WEL2                         

            TOTAL IN =           0.1780              TOTAL IN =       5.0000E-04

          OUT:                                     OUT:
          ----                                     ----
     STORAGE-AQUEOUS =       8.7709E-02       STORAGE-AQUEOUS =       1.8166E-04     MST                              
                 WEL =       9.0319E-02                   WEL =       3.1835E-04     SSM_WEL1                         
                 WEL =           0.0000                   WEL =           0.0000     SSM_WEL2                         

           TOTAL OUT =           0.1780             TOTAL OUT =       5.0001E-04

            IN - OUT =      -1.8098E-06              IN - OUT =      -7.2738E-09

 PERCENT DISCREPANCY =          -0.00     PERCENT DISCREPANCY =          -0.00




         TIME SUMMARY AT END OF TIME STEP   78 IN STRESS PERIOD    2
                    SECONDS     MINUTES      HOURS       DAYS        YEARS
                    -----------------------------------------------------------
   TIME STEP LENGTH 1.72800E+05  2880.0      48.000      2.0000     5.47570E-03
 STRESS PERIOD TIME 1.34784E+07 2.24640E+05  3744.0      156.00     0.42710    
         TOTAL TIME 3.07584E+07 5.12640E+05  8544.0      356.00     0.97467    


end timestep


start timestep kper="2" kstp="79" mode="normal"

 UBDSV1 SAVING     FLOW-JA-FACE ON UNIT   1030 AT TIME STEP     79, STRESS PERIOD      2
 UBDSV1 SAVING  STORAGE-AQUEOUS ON UNIT   1030 AT TIME STEP     79, STRESS PERIOD      2
 UBDSV06 SAVING  SOURCE-SINK MIX IN MODEL SVA_TM_T         PACKAGE SVA_TM_T        CONNECTED TO MODEL SVA_TM_T         PACKAGE SSM              ON UNIT   1030 AT TIME STEP     79, STRESS PERIOD      2

 CONCENTRATION WILL BE SAVED ON UNIT 1031 AT END OF TIME STEP   79, STRESS PERIOD    2


  MASS BUDGET FOR ENTIRE MODEL AT END OF TIME STEP   79, STRESS PERIOD   2
  ---------------------------------------------------------------------------------------------------

     CUMULATIVE MASS      M       RATES FOR THIS TIME STEP      M/T          PACKAGE NAME    
     ------------------                 ------------------------                     ----------------

           IN:                                      IN:
           ---                                      ---
     STORAGE-AQUEOUS =       2.5563E-05       STORAGE-AQUEOUS =       2.9646E-15     MST                              
                 WEL =           0.0000                   WEL =           0.0000     SSM_WEL1                         
                 WEL =           0.1790                   WEL =       5.0000E-04     SSM_WEL2                         

            TOTAL IN =           0.1790              TOTAL IN =       5.0000E-04

          OUT:                                     OUT:
          ----                                     ----
     STORAGE-AQUEOUS =       8.8070E-02       STORAGE-AQUEOUS =       1.8092E-04     MST                              
                 WEL =       9.0957E-02                   WEL =       3.1908E-04     SSM_WEL1                         
                 WEL =           0.0000                   WEL =           0.0000     SSM_WEL2                         

           TOTAL OUT =           0.1790             TOTAL OUT =       5.0001E-04

            IN - OUT =      -1.8241E-06              IN - OUT =      -7.1689E-09

 PERCENT DISCREPANCY =          -0.00     PERCENT DISCREPANCY =          -0.00




         TIME SUMMARY AT END OF TIME STEP   79 IN STRESS PERIOD    2
                    SECONDS     MINUTES      HOURS       DAYS        YEARS
                    -----------------------------------------------------------
   TIME STEP LENGTH 1.72800E+05  2880.0      48.000      2.0000     5.47570E-03
 STRESS PERIOD TIME 1.36512E+07 2.27520E+05  3792.0      158.00     0.43258    
         TOTAL TIME 3.09312E+07 5.15520E+05  8592.0      358.00     0.98015    


end timestep


start timestep kper="2" kstp="80" mode="normal"

 UBDSV1 SAVING     FLOW-JA-FACE ON UNIT   1030 AT TIME STEP     80, STRESS PERIOD      2
 UBDSV1 SAVING  STORAGE-AQUEOUS ON UNIT   1030 AT TIME STEP     80, STRESS PERIOD      2
 UBDSV06 SAVING  SOURCE-SINK MIX IN MODEL SVA_TM_T         PACKAGE SVA_TM_T        CONNECTED TO MODEL SVA_TM_T         PACKAGE SSM              ON UNIT   1030 AT TIME STEP     80, STRESS PERIOD      2

 CONCENTRATION WILL BE SAVED ON UNIT 1031 AT END OF TIME STEP   80, STRESS PERIOD    2


  MASS BUDGET FOR ENTIRE MODEL AT END OF TIME STEP   80, STRESS PERIOD   2
  ---------------------------------------------------------------------------------------------------

     CUMULATIVE MASS      M       RATES FOR THIS TIME STEP      M/T          PACKAGE NAME    
     ------------------                 ------------------------                     ----------------

           IN:                                      IN:
           ---                                      ---
     STORAGE-AQUEOUS =       2.5563E-05       STORAGE-AQUEOUS =       2.6518E-15     MST                              
                 WEL =           0.0000                   WEL =           0.0000     SSM_WEL1                         
                 WEL =           0.1800                   WEL =       5.0000E-04     SSM_WEL2                         

            TOTAL IN =           0.1800              TOTAL IN =       5.0000E-04

          OUT:                                     OUT:
          ----                                     ----
     STORAGE-AQUEOUS =       8.8431E-02       STORAGE-AQUEOUS =       1.8018E-04     MST                              
                 WEL =       9.1597E-02                   WEL =       3.1982E-04     SSM_WEL1                         
                 WEL =           0.0000                   WEL =           0.0000     SSM_WEL2                         

           TOTAL OUT =           0.1800             TOTAL OUT =       5.0001E-04

            IN - OUT =      -1.8381E-06              IN - OUT =      -6.9723E-09

 PERCENT DISCREPANCY =          -0.00     PERCENT DISCREPANCY =          -0.00




         TIME SUMMARY AT END OF TIME STEP   80 IN STRESS PERIOD    2
                    SECONDS     MINUTES      HOURS       DAYS        YEARS
                    -----------------------------------------------------------
   TIME STEP LENGTH 1.72800E+05  2880.0      48.000      2.0000     5.47570E-03
 STRESS PERIOD TIME 1.38240E+07 2.30400E+05  3840.0      160.00     0.43806    
         TOTAL TIME 3.11040E+07 5.18400E+05  8640.0      360.00     0.98563    


end timestep


start timestep kper="2" kstp="81" mode="normal"

 UBDSV1 SAVING     FLOW-JA-FACE ON UNIT   1030 AT TIME STEP     81, STRESS PERIOD      2
 UBDSV1 SAVING  STORAGE-AQUEOUS ON UNIT   1030 AT TIME STEP     81, STRESS PERIOD      2
 UBDSV06 SAVING  SOURCE-SINK MIX IN MODEL SVA_TM_T         PACKAGE SVA_TM_T        CONNECTED TO MODEL SVA_TM_T         PACKAGE SSM              ON UNIT   1030 AT TIME STEP     81, STRESS PERIOD      2

 CONCENTRATION WILL BE SAVED ON UNIT 1031 AT END OF TIME STEP   81, STRESS PERIOD    2


  MASS BUDGET FOR ENTIRE MODEL AT END OF TIME STEP   81, STRESS PERIOD   2
  ---------------------------------------------------------------------------------------------------

     CUMULATIVE MASS      M       RATES FOR THIS TIME STEP      M/T          PACKAGE NAME    
     ------------------                 ------------------------                     ----------------

           IN:                                      IN:
           ---                                      ---
     STORAGE-AQUEOUS =       2.5563E-05       STORAGE-AQUEOUS =       2.3952E-15     MST                              
                 WEL =           0.0000                   WEL =           0.0000     SSM_WEL1                         
                 WEL =           0.1810                   WEL =       5.0000E-04     SSM_WEL2                         

            TOTAL IN =           0.1810              TOTAL IN =       5.0000E-04

          OUT:                                     OUT:
          ----                                     ----
     STORAGE-AQUEOUS =       8.8790E-02       STORAGE-AQUEOUS =       1.7944E-04     MST                              
                 WEL =       9.2238E-02                   WEL =       3.2057E-04     SSM_WEL1                         
                 WEL =           0.0000                   WEL =           0.0000     SSM_WEL2                         

           TOTAL OUT =           0.1810             TOTAL OUT =       5.0001E-04

            IN - OUT =      -1.8519E-06              IN - OUT =      -6.9257E-09

 PERCENT DISCREPANCY =          -0.00     PERCENT DISCREPANCY =          -0.00




         TIME SUMMARY AT END OF TIME STEP   81 IN STRESS PERIOD    2
                    SECONDS     MINUTES      HOURS       DAYS        YEARS
                    -----------------------------------------------------------
   TIME STEP LENGTH 1.72800E+05  2880.0      48.000      2.0000     5.47570E-03
 STRESS PERIOD TIME 1.39968E+07 2.33280E+05  3888.0      162.00     0.44353    
         TOTAL TIME 3.12768E+07 5.21280E+05  8688.0      362.00     0.99110    


end timestep


start timestep kper="2" kstp="82" mode="normal"

 UBDSV1 SAVING     FLOW-JA-FACE ON UNIT   1030 AT TIME STEP     82, STRESS PERIOD      2
 UBDSV1 SAVING  STORAGE-AQUEOUS ON UNIT   1030 AT TIME STEP     82, STRESS PERIOD      2
 UBDSV06 SAVING  SOURCE-SINK MIX IN MODEL SVA_TM_T         PACKAGE SVA_TM_T        CONNECTED TO MODEL SVA_TM_T         PACKAGE SSM              ON UNIT   1030 AT TIME STEP     82, STRESS PERIOD      2

 CONCENTRATION WILL BE SAVED ON UNIT 1031 AT END OF TIME STEP   82, STRESS PERIOD    2


  MASS BUDGET FOR ENTIRE MODEL AT END OF TIME STEP   82, STRESS PERIOD   2
  ---------------------------------------------------------------------------------------------------

     CUMULATIVE MASS      M       RATES FOR THIS TIME STEP      M/T          PACKAGE NAME    
     ------------------                 ------------------------                     ----------------

           IN:                                      IN:
           ---                                      ---
     STORAGE-AQUEOUS =       2.5563E-05       STORAGE-AQUEOUS =       2.1591E-15     MST                              
                 WEL =           0.0000                   WEL =           0.0000     SSM_WEL1                         
                 WEL =           0.1820                   WEL =       5.0000E-04     SSM_WEL2                         

            TOTAL IN =           0.1820              TOTAL IN =       5.0000E-04

          OUT:                                     OUT:
          ----                                     ----
     STORAGE-AQUEOUS =       8.9147E-02       STORAGE-AQUEOUS =       1.7869E-04     MST                              
                 WEL =       9.2880E-02                   WEL =       3.2132E-04     SSM_WEL1                         
                 WEL =           0.0000                   WEL =           0.0000     SSM_WEL2                         

           TOTAL OUT =           0.1820             TOTAL OUT =       5.0001E-04

            IN - OUT =      -1.8657E-06              IN - OUT =      -6.8628E-09

 PERCENT DISCREPANCY =          -0.00     PERCENT DISCREPANCY =          -0.00




         TIME SUMMARY AT END OF TIME STEP   82 IN STRESS PERIOD    2
                    SECONDS     MINUTES      HOURS       DAYS        YEARS
                    -----------------------------------------------------------
   TIME STEP LENGTH 1.72800E+05  2880.0      48.000      2.0000     5.47570E-03
 STRESS PERIOD TIME 1.41696E+07 2.36160E+05  3936.0      164.00     0.44901    
         TOTAL TIME 3.14496E+07 5.24160E+05  8736.0      364.00     0.99658    


end timestep


start timestep kper="2" kstp="83" mode="normal"

 UBDSV1 SAVING     FLOW-JA-FACE ON UNIT   1030 AT TIME STEP     83, STRESS PERIOD      2
 UBDSV1 SAVING  STORAGE-AQUEOUS ON UNIT   1030 AT TIME STEP     83, STRESS PERIOD      2
 UBDSV06 SAVING  SOURCE-SINK MIX IN MODEL SVA_TM_T         PACKAGE SVA_TM_T        CONNECTED TO MODEL SVA_TM_T         PACKAGE SSM              ON UNIT   1030 AT TIME STEP     83, STRESS PERIOD      2

 CONCENTRATION WILL BE SAVED ON UNIT 1031 AT END OF TIME STEP   83, STRESS PERIOD    2


  MASS BUDGET FOR ENTIRE MODEL AT END OF TIME STEP   83, STRESS PERIOD   2
  ---------------------------------------------------------------------------------------------------

     CUMULATIVE MASS      M       RATES FOR THIS TIME STEP      M/T          PACKAGE NAME    
     ------------------                 ------------------------                     ----------------

           IN:                                      IN:
           ---                                      ---
     STORAGE-AQUEOUS =       2.5563E-05       STORAGE-AQUEOUS =       1.9813E-15     MST                              
                 WEL =           0.0000                   WEL =           0.0000     SSM_WEL1                         
                 WEL =           0.1830                   WEL =       5.0000E-04     SSM_WEL2                         

            TOTAL IN =           0.1830              TOTAL IN =       5.0000E-04

          OUT:                                     OUT:
          ----                                     ----
     STORAGE-AQUEOUS =       8.9503E-02       STORAGE-AQUEOUS =       1.7794E-04     MST                              
                 WEL =       9.3524E-02                   WEL =       3.2207E-04     SSM_WEL1                         
                 WEL =           0.0000                   WEL =           0.0000     SSM_WEL2                         

           TOTAL OUT =           0.1830             TOTAL OUT =       5.0001E-04

            IN - OUT =      -1.8793E-06              IN - OUT =      -6.8237E-09

 PERCENT DISCREPANCY =          -0.00     PERCENT DISCREPANCY =          -0.00




         TIME SUMMARY AT END OF TIME STEP   83 IN STRESS PERIOD    2
                    SECONDS     MINUTES      HOURS       DAYS        YEARS
                    -----------------------------------------------------------
   TIME STEP LENGTH 1.72800E+05  2880.0      48.000      2.0000     5.47570E-03
 STRESS PERIOD TIME 1.43424E+07 2.39040E+05  3984.0      166.00     0.45448    
         TOTAL TIME 3.16224E+07 5.27040E+05  8784.0      366.00      1.0021    


end timestep


start timestep kper="2" kstp="84" mode="normal"

 UBDSV1 SAVING     FLOW-JA-FACE ON UNIT   1030 AT TIME STEP     84, STRESS PERIOD      2
 UBDSV1 SAVING  STORAGE-AQUEOUS ON UNIT   1030 AT TIME STEP     84, STRESS PERIOD      2
 UBDSV06 SAVING  SOURCE-SINK MIX IN MODEL SVA_TM_T         PACKAGE SVA_TM_T        CONNECTED TO MODEL SVA_TM_T         PACKAGE SSM              ON UNIT   1030 AT TIME STEP     84, STRESS PERIOD      2

 CONCENTRATION WILL BE SAVED ON UNIT 1031 AT END OF TIME STEP   84, STRESS PERIOD    2


  MASS BUDGET FOR ENTIRE MODEL AT END OF TIME STEP   84, STRESS PERIOD   2
  ---------------------------------------------------------------------------------------------------

     CUMULATIVE MASS      M       RATES FOR THIS TIME STEP      M/T          PACKAGE NAME    
     ------------------                 ------------------------                     ----------------

           IN:                                      IN:
           ---                                      ---
     STORAGE-AQUEOUS =       2.5563E-05       STORAGE-AQUEOUS =       7.9480E-12     MST                              
                 WEL =           0.0000                   WEL =           0.0000     SSM_WEL1                         
                 WEL =           0.1840                   WEL =       5.0000E-04     SSM_WEL2                         

            TOTAL IN =           0.1840              TOTAL IN =       5.0000E-04

          OUT:                                     OUT:
          ----                                     ----
     STORAGE-AQUEOUS =       8.9857E-02       STORAGE-AQUEOUS =       1.7719E-04     MST                              
                 WEL =       9.4170E-02                   WEL =       3.2282E-04     SSM_WEL1                         
                 WEL =           0.0000                   WEL =           0.0000     SSM_WEL2                         

           TOTAL OUT =           0.1840             TOTAL OUT =       5.0001E-04

            IN - OUT =      -1.8928E-06              IN - OUT =      -6.7422E-09

 PERCENT DISCREPANCY =          -0.00     PERCENT DISCREPANCY =          -0.00




         TIME SUMMARY AT END OF TIME STEP   84 IN STRESS PERIOD    2
                    SECONDS     MINUTES      HOURS       DAYS        YEARS
                    -----------------------------------------------------------
   TIME STEP LENGTH 1.72800E+05  2880.0      48.000      2.0000     5.47570E-03
 STRESS PERIOD TIME 1.45152E+07 2.41920E+05  4032.0      168.00     0.45996    
         TOTAL TIME 3.17952E+07 5.29920E+05  8832.0      368.00      1.0075    


end timestep


start timestep kper="2" kstp="85" mode="normal"

 UBDSV1 SAVING     FLOW-JA-FACE ON UNIT   1030 AT TIME STEP     85, STRESS PERIOD      2
 UBDSV1 SAVING  STORAGE-AQUEOUS ON UNIT   1030 AT TIME STEP     85, STRESS PERIOD      2
 UBDSV06 SAVING  SOURCE-SINK MIX IN MODEL SVA_TM_T         PACKAGE SVA_TM_T        CONNECTED TO MODEL SVA_TM_T         PACKAGE SSM              ON UNIT   1030 AT TIME STEP     85, STRESS PERIOD      2

 CONCENTRATION WILL BE SAVED ON UNIT 1031 AT END OF TIME STEP   85, STRESS PERIOD    2


  MASS BUDGET FOR ENTIRE MODEL AT END OF TIME STEP   85, STRESS PERIOD   2
  ---------------------------------------------------------------------------------------------------

     CUMULATIVE MASS      M       RATES FOR THIS TIME STEP      M/T          PACKAGE NAME    
     ------------------                 ------------------------                     ----------------

           IN:                                      IN:
           ---                                      ---
     STORAGE-AQUEOUS =       2.5563E-05       STORAGE-AQUEOUS =       5.1888E-11     MST                              
                 WEL =           0.0000                   WEL =           0.0000     SSM_WEL1                         
                 WEL =           0.1850                   WEL =       5.0000E-04     SSM_WEL2                         

            TOTAL IN =           0.1850              TOTAL IN =       5.0000E-04

          OUT:                                     OUT:
          ----                                     ----
     STORAGE-AQUEOUS =       9.0210E-02       STORAGE-AQUEOUS =       1.7644E-04     MST                              
                 WEL =       9.4817E-02                   WEL =       3.2357E-04     SSM_WEL1                         
                 WEL =           0.0000                   WEL =           0.0000     SSM_WEL2                         

           TOTAL OUT =           0.1850             TOTAL OUT =       5.0001E-04

            IN - OUT =      -1.9061E-06              IN - OUT =      -6.6751E-09

 PERCENT DISCREPANCY =          -0.00     PERCENT DISCREPANCY =          -0.00




         TIME SUMMARY AT END OF TIME STEP   85 IN STRESS PERIOD    2
                    SECONDS     MINUTES      HOURS       DAYS        YEARS
                    -----------------------------------------------------------
   TIME STEP LENGTH 1.72800E+05  2880.0      48.000      2.0000     5.47570E-03
 STRESS PERIOD TIME 1.46880E+07 2.44800E+05  4080.0      170.00     0.46543    
         TOTAL TIME 3.19680E+07 5.32800E+05  8880.0      370.00      1.0130    


end timestep


start timestep kper="2" kstp="86" mode="normal"

 UBDSV1 SAVING     FLOW-JA-FACE ON UNIT   1030 AT TIME STEP     86, STRESS PERIOD      2
 UBDSV1 SAVING  STORAGE-AQUEOUS ON UNIT   1030 AT TIME STEP     86, STRESS PERIOD      2
 UBDSV06 SAVING  SOURCE-SINK MIX IN MODEL SVA_TM_T         PACKAGE SVA_TM_T        CONNECTED TO MODEL SVA_TM_T         PACKAGE SSM              ON UNIT   1030 AT TIME STEP     86, STRESS PERIOD      2

 CONCENTRATION WILL BE SAVED ON UNIT 1031 AT END OF TIME STEP   86, STRESS PERIOD    2


  MASS BUDGET FOR ENTIRE MODEL AT END OF TIME STEP   86, STRESS PERIOD   2
  ---------------------------------------------------------------------------------------------------

     CUMULATIVE MASS      M       RATES FOR THIS TIME STEP      M/T          PACKAGE NAME    
     ------------------                 ------------------------                     ----------------

           IN:                                      IN:
           ---                                      ---
     STORAGE-AQUEOUS =       2.5564E-05       STORAGE-AQUEOUS =       1.0153E-10     MST                              
                 WEL =           0.0000                   WEL =           0.0000     SSM_WEL1                         
                 WEL =           0.1860                   WEL =       5.0000E-04     SSM_WEL2                         

            TOTAL IN =           0.1860              TOTAL IN =       5.0000E-04

          OUT:                                     OUT:
          ----                                     ----
     STORAGE-AQUEOUS =       9.0562E-02       STORAGE-AQUEOUS =       1.7568E-04     MST                              
                 WEL =       9.5466E-02                   WEL =       3.2433E-04     SSM_WEL1                         
                 WEL =           0.0000                   WEL =           0.0000     SSM_WEL2                         

           TOTAL OUT =           0.1860             TOTAL OUT =       5.0001E-04

            IN - OUT =      -1.9193E-06              IN - OUT =      -6.5694E-09

 PERCENT DISCREPANCY =          -0.00     PERCENT DISCREPANCY =          -0.00




         TIME SUMMARY AT END OF TIME STEP   86 IN STRESS PERIOD    2
                    SECONDS     MINUTES      HOURS       DAYS        YEARS
                    -----------------------------------------------------------
   TIME STEP LENGTH 1.72800E+05  2880.0      48.000      2.0000     5.47570E-03
 STRESS PERIOD TIME 1.48608E+07 2.47680E+05  4128.0      172.00     0.47091    
         TOTAL TIME 3.21408E+07 5.35680E+05  8928.0      372.00      1.0185    


end timestep


start timestep kper="2" kstp="87" mode="normal"

 UBDSV1 SAVING     FLOW-JA-FACE ON UNIT   1030 AT TIME STEP     87, STRESS PERIOD      2
 UBDSV1 SAVING  STORAGE-AQUEOUS ON UNIT   1030 AT TIME STEP     87, STRESS PERIOD      2
 UBDSV06 SAVING  SOURCE-SINK MIX IN MODEL SVA_TM_T         PACKAGE SVA_TM_T        CONNECTED TO MODEL SVA_TM_T         PACKAGE SSM              ON UNIT   1030 AT TIME STEP     87, STRESS PERIOD      2

 CONCENTRATION WILL BE SAVED ON UNIT 1031 AT END OF TIME STEP   87, STRESS PERIOD    2


  MASS BUDGET FOR ENTIRE MODEL AT END OF TIME STEP   87, STRESS PERIOD   2
  ---------------------------------------------------------------------------------------------------

     CUMULATIVE MASS      M       RATES FOR THIS TIME STEP      M/T          PACKAGE NAME    
     ------------------                 ------------------------                     ----------------

           IN:                                      IN:
           ---                                      ---
     STORAGE-AQUEOUS =       2.5564E-05       STORAGE-AQUEOUS =       1.5890E-10     MST                              
                 WEL =           0.0000                   WEL =           0.0000     SSM_WEL1                         
                 WEL =           0.1870                   WEL =       5.0000E-04     SSM_WEL2                         

            TOTAL IN =           0.1870              TOTAL IN =       5.0000E-04

          OUT:                                     OUT:
          ----                                     ----
     STORAGE-AQUEOUS =       9.0911E-02       STORAGE-AQUEOUS =       1.7492E-04     MST                              
                 WEL =       9.6116E-02                   WEL =       3.2508E-04     SSM_WEL1                         
                 WEL =           0.0000                   WEL =           0.0000     SSM_WEL2                         

           TOTAL OUT =           0.1870             TOTAL OUT =       5.0001E-04

            IN - OUT =      -1.9323E-06              IN - OUT =      -6.5246E-09

 PERCENT DISCREPANCY =          -0.00     PERCENT DISCREPANCY =          -0.00




         TIME SUMMARY AT END OF TIME STEP   87 IN STRESS PERIOD    2
                    SECONDS     MINUTES      HOURS       DAYS        YEARS
                    -----------------------------------------------------------
   TIME STEP LENGTH 1.72800E+05  2880.0      48.000      2.0000     5.47570E-03
 STRESS PERIOD TIME 1.50336E+07 2.50560E+05  4176.0      174.00     0.47639    
         TOTAL TIME 3.23136E+07 5.38560E+05  8976.0      374.00      1.0240    


end timestep


start timestep kper="2" kstp="88" mode="normal"

 UBDSV1 SAVING     FLOW-JA-FACE ON UNIT   1030 AT TIME STEP     88, STRESS PERIOD      2
 UBDSV1 SAVING  STORAGE-AQUEOUS ON UNIT   1030 AT TIME STEP     88, STRESS PERIOD      2
 UBDSV06 SAVING  SOURCE-SINK MIX IN MODEL SVA_TM_T         PACKAGE SVA_TM_T        CONNECTED TO MODEL SVA_TM_T         PACKAGE SSM              ON UNIT   1030 AT TIME STEP     88, STRESS PERIOD      2

 CONCENTRATION WILL BE SAVED ON UNIT 1031 AT END OF TIME STEP   88, STRESS PERIOD    2


  MASS BUDGET FOR ENTIRE MODEL AT END OF TIME STEP   88, STRESS PERIOD   2
  ---------------------------------------------------------------------------------------------------

     CUMULATIVE MASS      M       RATES FOR THIS TIME STEP      M/T          PACKAGE NAME    
     ------------------                 ------------------------                     ----------------

           IN:                                      IN:
           ---                                      ---
     STORAGE-AQUEOUS =       2.5564E-05       STORAGE-AQUEOUS =       2.3516E-10     MST                              
                 WEL =           0.0000                   WEL =           0.0000     SSM_WEL1                         
                 WEL =           0.1880                   WEL =       5.0000E-04     SSM_WEL2                         

            TOTAL IN =           0.1880              TOTAL IN =       5.0000E-04

          OUT:                                     OUT:
          ----                                     ----
     STORAGE-AQUEOUS =       9.1260E-02       STORAGE-AQUEOUS =       1.7417E-04     MST                              
                 WEL =       9.6768E-02                   WEL =       3.2584E-04     SSM_WEL1                         
                 WEL =           0.0000                   WEL =           0.0000     SSM_WEL2                         

           TOTAL OUT =           0.1880             TOTAL OUT =       5.0001E-04

            IN - OUT =      -1.9451E-06              IN - OUT =      -6.4076E-09

 PERCENT DISCREPANCY =          -0.00     PERCENT DISCREPANCY =          -0.00




         TIME SUMMARY AT END OF TIME STEP   88 IN STRESS PERIOD    2
                    SECONDS     MINUTES      HOURS       DAYS        YEARS
                    -----------------------------------------------------------
   TIME STEP LENGTH 1.72800E+05  2880.0      48.000      2.0000     5.47570E-03
 STRESS PERIOD TIME 1.52064E+07 2.53440E+05  4224.0      176.00     0.48186    
         TOTAL TIME 3.24864E+07 5.41440E+05  9024.0      376.00      1.0294    


end timestep


start timestep kper="2" kstp="89" mode="normal"

 UBDSV1 SAVING     FLOW-JA-FACE ON UNIT   1030 AT TIME STEP     89, STRESS PERIOD      2
 UBDSV1 SAVING  STORAGE-AQUEOUS ON UNIT   1030 AT TIME STEP     89, STRESS PERIOD      2
 UBDSV06 SAVING  SOURCE-SINK MIX IN MODEL SVA_TM_T         PACKAGE SVA_TM_T        CONNECTED TO MODEL SVA_TM_T         PACKAGE SSM              ON UNIT   1030 AT TIME STEP     89, STRESS PERIOD      2

 CONCENTRATION WILL BE SAVED ON UNIT 1031 AT END OF TIME STEP   89, STRESS PERIOD    2


  MASS BUDGET FOR ENTIRE MODEL AT END OF TIME STEP   89, STRESS PERIOD   2
  ---------------------------------------------------------------------------------------------------

     CUMULATIVE MASS      M       RATES FOR THIS TIME STEP      M/T          PACKAGE NAME    
     ------------------                 ------------------------                     ----------------

           IN:                                      IN:
           ---                                      ---
     STORAGE-AQUEOUS =       2.5565E-05       STORAGE-AQUEOUS =       3.1986E-10     MST                              
                 WEL =           0.0000                   WEL =           0.0000     SSM_WEL1                         
                 WEL =           0.1890                   WEL =       5.0000E-04     SSM_WEL2                         

            TOTAL IN =           0.1890              TOTAL IN =       5.0000E-04

          OUT:                                     OUT:
          ----                                     ----
     STORAGE-AQUEOUS =       9.1607E-02       STORAGE-AQUEOUS =       1.7341E-04     MST                              
                 WEL =       9.7421E-02                   WEL =       3.2660E-04     SSM_WEL1                         
                 WEL =           0.0000                   WEL =           0.0000     SSM_WEL2                         

           TOTAL OUT =           0.1890             TOTAL OUT =       5.0001E-04

            IN - OUT =      -1.9580E-06              IN - OUT =      -6.4209E-09

 PERCENT DISCREPANCY =          -0.00     PERCENT DISCREPANCY =          -0.00




         TIME SUMMARY AT END OF TIME STEP   89 IN STRESS PERIOD    2
                    SECONDS     MINUTES      HOURS       DAYS        YEARS
                    -----------------------------------------------------------
   TIME STEP LENGTH 1.72800E+05  2880.0      48.000      2.0000     5.47570E-03
 STRESS PERIOD TIME 1.53792E+07 2.56320E+05  4272.0      178.00     0.48734    
         TOTAL TIME 3.26592E+07 5.44320E+05  9072.0      378.00      1.0349    


end timestep


start timestep kper="2" kstp="90" mode="normal"

 UBDSV1 SAVING     FLOW-JA-FACE ON UNIT   1030 AT TIME STEP     90, STRESS PERIOD      2
 UBDSV1 SAVING  STORAGE-AQUEOUS ON UNIT   1030 AT TIME STEP     90, STRESS PERIOD      2
 UBDSV06 SAVING  SOURCE-SINK MIX IN MODEL SVA_TM_T         PACKAGE SVA_TM_T        CONNECTED TO MODEL SVA_TM_T         PACKAGE SSM              ON UNIT   1030 AT TIME STEP     90, STRESS PERIOD      2

 CONCENTRATION WILL BE SAVED ON UNIT 1031 AT END OF TIME STEP   90, STRESS PERIOD    2


  MASS BUDGET FOR ENTIRE MODEL AT END OF TIME STEP   90, STRESS PERIOD   2
  ---------------------------------------------------------------------------------------------------

     CUMULATIVE MASS      M       RATES FOR THIS TIME STEP      M/T          PACKAGE NAME    
     ------------------                 ------------------------                     ----------------

           IN:                                      IN:
           ---                                      ---
     STORAGE-AQUEOUS =       2.5566E-05       STORAGE-AQUEOUS =       3.9172E-10     MST                              
                 WEL =           0.0000                   WEL =           0.0000     SSM_WEL1                         
                 WEL =           0.1900                   WEL =       5.0000E-04     SSM_WEL2                         

            TOTAL IN =           0.1900              TOTAL IN =       5.0000E-04

          OUT:                                     OUT:
          ----                                     ----
     STORAGE-AQUEOUS =       9.1952E-02       STORAGE-AQUEOUS =       1.7265E-04     MST                              
                 WEL =       9.8076E-02                   WEL =       3.2736E-04     SSM_WEL1                         
                 WEL =           0.0000                   WEL =           0.0000     SSM_WEL2                         

           TOTAL OUT =           0.1900             TOTAL OUT =       5.0001E-04

            IN - OUT =      -1.9707E-06              IN - OUT =      -6.3587E-09

 PERCENT DISCREPANCY =          -0.00     PERCENT DISCREPANCY =          -0.00




         TIME SUMMARY AT END OF TIME STEP   90 IN STRESS PERIOD    2
                    SECONDS     MINUTES      HOURS       DAYS        YEARS
                    -----------------------------------------------------------
   TIME STEP LENGTH 1.72800E+05  2880.0      48.000      2.0000     5.47570E-03
 STRESS PERIOD TIME 1.55520E+07 2.59200E+05  4320.0      180.00     0.49281    
         TOTAL TIME 3.28320E+07 5.47200E+05  9120.0      380.00      1.0404    


end timestep


start timestep kper="2" kstp="91" mode="normal"

 UBDSV1 SAVING     FLOW-JA-FACE ON UNIT   1030 AT TIME STEP     91, STRESS PERIOD      2
 UBDSV1 SAVING  STORAGE-AQUEOUS ON UNIT   1030 AT TIME STEP     91, STRESS PERIOD      2
 UBDSV06 SAVING  SOURCE-SINK MIX IN MODEL SVA_TM_T         PACKAGE SVA_TM_T        CONNECTED TO MODEL SVA_TM_T         PACKAGE SSM              ON UNIT   1030 AT TIME STEP     91, STRESS PERIOD      2

 CONCENTRATION WILL BE SAVED ON UNIT 1031 AT END OF TIME STEP   91, STRESS PERIOD    2


  MASS BUDGET FOR ENTIRE MODEL AT END OF TIME STEP   91, STRESS PERIOD   2
  ---------------------------------------------------------------------------------------------------

     CUMULATIVE MASS      M       RATES FOR THIS TIME STEP      M/T          PACKAGE NAME    
     ------------------                 ------------------------                     ----------------

           IN:                                      IN:
           ---                                      ---
     STORAGE-AQUEOUS =       2.5566E-05       STORAGE-AQUEOUS =       2.0021E-10     MST                              
                 WEL =           0.0000                   WEL =           0.0000     SSM_WEL1                         
                 WEL =           0.1910                   WEL =       5.0000E-04     SSM_WEL2                         

            TOTAL IN =           0.1910              TOTAL IN =       5.0000E-04

          OUT:                                     OUT:
          ----                                     ----
     STORAGE-AQUEOUS =       9.2296E-02       STORAGE-AQUEOUS =       1.7188E-04     MST                              
                 WEL =       9.8732E-02                   WEL =       3.2812E-04     SSM_WEL1                         
                 WEL =           0.0000                   WEL =           0.0000     SSM_WEL2                         

           TOTAL OUT =           0.1910             TOTAL OUT =       5.0001E-04

            IN - OUT =      -1.9833E-06              IN - OUT =      -6.3004E-09

 PERCENT DISCREPANCY =          -0.00     PERCENT DISCREPANCY =          -0.00




         TIME SUMMARY AT END OF TIME STEP   91 IN STRESS PERIOD    2
                    SECONDS     MINUTES      HOURS       DAYS        YEARS
                    -----------------------------------------------------------
   TIME STEP LENGTH 1.72800E+05  2880.0      48.000      2.0000     5.47570E-03
 STRESS PERIOD TIME 1.57248E+07 2.62080E+05  4368.0      182.00     0.49829    
         TOTAL TIME 3.30048E+07 5.50080E+05  9168.0      382.00      1.0459    


end timestep


start timestep kper="2" kstp="92" mode="normal"

 UBDSV1 SAVING     FLOW-JA-FACE ON UNIT   1030 AT TIME STEP     92, STRESS PERIOD      2
 UBDSV1 SAVING  STORAGE-AQUEOUS ON UNIT   1030 AT TIME STEP     92, STRESS PERIOD      2
 UBDSV06 SAVING  SOURCE-SINK MIX IN MODEL SVA_TM_T         PACKAGE SVA_TM_T        CONNECTED TO MODEL SVA_TM_T         PACKAGE SSM              ON UNIT   1030 AT TIME STEP     92, STRESS PERIOD      2

 CONCENTRATION WILL BE SAVED ON UNIT 1031 AT END OF TIME STEP   92, STRESS PERIOD    2


  MASS BUDGET FOR ENTIRE MODEL AT END OF TIME STEP   92, STRESS PERIOD   2
  ---------------------------------------------------------------------------------------------------

     CUMULATIVE MASS      M       RATES FOR THIS TIME STEP      M/T          PACKAGE NAME    
     ------------------                 ------------------------                     ----------------

           IN:                                      IN:
           ---                                      ---
     STORAGE-AQUEOUS =       2.5566E-05       STORAGE-AQUEOUS =       6.6382E-11     MST                              
                 WEL =           0.0000                   WEL =           0.0000     SSM_WEL1                         
                 WEL =           0.1920                   WEL =       5.0000E-04     SSM_WEL2                         

            TOTAL IN =           0.1920              TOTAL IN =       5.0000E-04

          OUT:                                     OUT:
          ----                                     ----
     STORAGE-AQUEOUS =       9.2638E-02       STORAGE-AQUEOUS =       1.7112E-04     MST                              
                 WEL =       9.9390E-02                   WEL =       3.2888E-04     SSM_WEL1                         
                 WEL =           0.0000                   WEL =           0.0000     SSM_WEL2                         

           TOTAL OUT =           0.1920             TOTAL OUT =       5.0001E-04

            IN - OUT =      -1.9958E-06              IN - OUT =      -6.2392E-09

 PERCENT DISCREPANCY =          -0.00     PERCENT DISCREPANCY =          -0.00




         TIME SUMMARY AT END OF TIME STEP   92 IN STRESS PERIOD    2
                    SECONDS     MINUTES      HOURS       DAYS        YEARS
                    -----------------------------------------------------------
   TIME STEP LENGTH 1.72800E+05  2880.0      48.000      2.0000     5.47570E-03
 STRESS PERIOD TIME 1.58976E+07 2.64960E+05  4416.0      184.00     0.50376    
         TOTAL TIME 3.31776E+07 5.52960E+05  9216.0      384.00      1.0513    


end timestep


start timestep kper="2" kstp="93" mode="normal"

 UBDSV1 SAVING     FLOW-JA-FACE ON UNIT   1030 AT TIME STEP     93, STRESS PERIOD      2
 UBDSV1 SAVING  STORAGE-AQUEOUS ON UNIT   1030 AT TIME STEP     93, STRESS PERIOD      2
 UBDSV06 SAVING  SOURCE-SINK MIX IN MODEL SVA_TM_T         PACKAGE SVA_TM_T        CONNECTED TO MODEL SVA_TM_T         PACKAGE SSM              ON UNIT   1030 AT TIME STEP     93, STRESS PERIOD      2

 CONCENTRATION WILL BE SAVED ON UNIT 1031 AT END OF TIME STEP   93, STRESS PERIOD    2


  MASS BUDGET FOR ENTIRE MODEL AT END OF TIME STEP   93, STRESS PERIOD   2
  ---------------------------------------------------------------------------------------------------

     CUMULATIVE MASS      M       RATES FOR THIS TIME STEP      M/T          PACKAGE NAME    
     ------------------                 ------------------------                     ----------------

           IN:                                      IN:
           ---                                      ---
     STORAGE-AQUEOUS =       2.5566E-05       STORAGE-AQUEOUS =       1.2928E-15     MST                              
                 WEL =           0.0000                   WEL =           0.0000     SSM_WEL1                         
                 WEL =           0.1930                   WEL =       5.0000E-04     SSM_WEL2                         

            TOTAL IN =           0.1930              TOTAL IN =       5.0000E-04

          OUT:                                     OUT:
          ----                                     ----
     STORAGE-AQUEOUS =       9.2979E-02       STORAGE-AQUEOUS =       1.7036E-04     MST                              
                 WEL =           0.1000                   WEL =       3.2965E-04     SSM_WEL1                         
                 WEL =           0.0000                   WEL =           0.0000     SSM_WEL2                         

           TOTAL OUT =           0.1930             TOTAL OUT =       5.0001E-04

            IN - OUT =      -2.0080E-06              IN - OUT =      -6.1068E-09

 PERCENT DISCREPANCY =          -0.00     PERCENT DISCREPANCY =          -0.00




         TIME SUMMARY AT END OF TIME STEP   93 IN STRESS PERIOD    2
                    SECONDS     MINUTES      HOURS       DAYS        YEARS
                    -----------------------------------------------------------
   TIME STEP LENGTH 1.72800E+05  2880.0      48.000      2.0000     5.47570E-03
 STRESS PERIOD TIME 1.60704E+07 2.67840E+05  4464.0      186.00     0.50924    
         TOTAL TIME 3.33504E+07 5.55840E+05  9264.0      386.00      1.0568    


end timestep


start timestep kper="2" kstp="94" mode="normal"

 UBDSV1 SAVING     FLOW-JA-FACE ON UNIT   1030 AT TIME STEP     94, STRESS PERIOD      2
 UBDSV1 SAVING  STORAGE-AQUEOUS ON UNIT   1030 AT TIME STEP     94, STRESS PERIOD      2
 UBDSV06 SAVING  SOURCE-SINK MIX IN MODEL SVA_TM_T         PACKAGE SVA_TM_T        CONNECTED TO MODEL SVA_TM_T         PACKAGE SSM              ON UNIT   1030 AT TIME STEP     94, STRESS PERIOD      2

 CONCENTRATION WILL BE SAVED ON UNIT 1031 AT END OF TIME STEP   94, STRESS PERIOD    2


  MASS BUDGET FOR ENTIRE MODEL AT END OF TIME STEP   94, STRESS PERIOD   2
  ---------------------------------------------------------------------------------------------------

     CUMULATIVE MASS      M       RATES FOR THIS TIME STEP      M/T          PACKAGE NAME    
     ------------------                 ------------------------                     ----------------

           IN:                                      IN:
           ---                                      ---
     STORAGE-AQUEOUS =       2.5566E-05       STORAGE-AQUEOUS =       1.2838E-15     MST                              
                 WEL =           0.0000                   WEL =           0.0000     SSM_WEL1                         
                 WEL =           0.1940                   WEL =       5.0000E-04     SSM_WEL2                         

            TOTAL IN =           0.1940              TOTAL IN =       5.0000E-04

          OUT:                                     OUT:
          ----                                     ----
     STORAGE-AQUEOUS =       9.3318E-02       STORAGE-AQUEOUS =       1.6960E-04     MST                              
                 WEL =           0.1007                   WEL =       3.3041E-04     SSM_WEL1                         
                 WEL =           0.0000                   WEL =           0.0000     SSM_WEL2                         

           TOTAL OUT =           0.1940             TOTAL OUT =       5.0001E-04

            IN - OUT =      -2.0199E-06              IN - OUT =      -5.9574E-09

 PERCENT DISCREPANCY =          -0.00     PERCENT DISCREPANCY =          -0.00




         TIME SUMMARY AT END OF TIME STEP   94 IN STRESS PERIOD    2
                    SECONDS     MINUTES      HOURS       DAYS        YEARS
                    -----------------------------------------------------------
   TIME STEP LENGTH 1.72800E+05  2880.0      48.000      2.0000     5.47570E-03
 STRESS PERIOD TIME 1.62432E+07 2.70720E+05  4512.0      188.00     0.51472    
         TOTAL TIME 3.35232E+07 5.58720E+05  9312.0      388.00      1.0623    


end timestep


start timestep kper="2" kstp="95" mode="normal"

 UBDSV1 SAVING     FLOW-JA-FACE ON UNIT   1030 AT TIME STEP     95, STRESS PERIOD      2
 UBDSV1 SAVING  STORAGE-AQUEOUS ON UNIT   1030 AT TIME STEP     95, STRESS PERIOD      2
 UBDSV06 SAVING  SOURCE-SINK MIX IN MODEL SVA_TM_T         PACKAGE SVA_TM_T        CONNECTED TO MODEL SVA_TM_T         PACKAGE SSM              ON UNIT   1030 AT TIME STEP     95, STRESS PERIOD      2

 CONCENTRATION WILL BE SAVED ON UNIT 1031 AT END OF TIME STEP   95, STRESS PERIOD    2


  MASS BUDGET FOR ENTIRE MODEL AT END OF TIME STEP   95, STRESS PERIOD   2
  ---------------------------------------------------------------------------------------------------

     CUMULATIVE MASS      M       RATES FOR THIS TIME STEP      M/T          PACKAGE NAME    
     ------------------                 ------------------------                     ----------------

           IN:                                      IN:
           ---                                      ---
     STORAGE-AQUEOUS =       2.5566E-05       STORAGE-AQUEOUS =       1.2692E-15     MST                              
                 WEL =           0.0000                   WEL =           0.0000     SSM_WEL1                         
                 WEL =           0.1950                   WEL =       5.0000E-04     SSM_WEL2                         

            TOTAL IN =           0.1950              TOTAL IN =       5.0000E-04

          OUT:                                     OUT:
          ----                                     ----
     STORAGE-AQUEOUS =       9.3655E-02       STORAGE-AQUEOUS =       1.6883E-04     MST                              
                 WEL =           0.1014                   WEL =       3.3117E-04     SSM_WEL1                         
                 WEL =           0.0000                   WEL =           0.0000     SSM_WEL2                         

           TOTAL OUT =           0.1950             TOTAL OUT =       5.0001E-04

            IN - OUT =      -2.0315E-06              IN - OUT =      -5.7873E-09

 PERCENT DISCREPANCY =          -0.00     PERCENT DISCREPANCY =          -0.00




         TIME SUMMARY AT END OF TIME STEP   95 IN STRESS PERIOD    2
                    SECONDS     MINUTES      HOURS       DAYS        YEARS
                    -----------------------------------------------------------
   TIME STEP LENGTH 1.72800E+05  2880.0      48.000      2.0000     5.47570E-03
 STRESS PERIOD TIME 1.64160E+07 2.73600E+05  4560.0      190.00     0.52019    
         TOTAL TIME 3.36960E+07 5.61600E+05  9360.0      390.00      1.0678    


end timestep


start timestep kper="2" kstp="96" mode="normal"

 UBDSV1 SAVING     FLOW-JA-FACE ON UNIT   1030 AT TIME STEP     96, STRESS PERIOD      2
 UBDSV1 SAVING  STORAGE-AQUEOUS ON UNIT   1030 AT TIME STEP     96, STRESS PERIOD      2
 UBDSV06 SAVING  SOURCE-SINK MIX IN MODEL SVA_TM_T         PACKAGE SVA_TM_T        CONNECTED TO MODEL SVA_TM_T         PACKAGE SSM              ON UNIT   1030 AT TIME STEP     96, STRESS PERIOD      2

 CONCENTRATION WILL BE SAVED ON UNIT 1031 AT END OF TIME STEP   96, STRESS PERIOD    2


  MASS BUDGET FOR ENTIRE MODEL AT END OF TIME STEP   96, STRESS PERIOD   2
  ---------------------------------------------------------------------------------------------------

     CUMULATIVE MASS      M       RATES FOR THIS TIME STEP      M/T          PACKAGE NAME    
     ------------------                 ------------------------                     ----------------

           IN:                                      IN:
           ---                                      ---
     STORAGE-AQUEOUS =       2.5566E-05       STORAGE-AQUEOUS =       1.2633E-15     MST                              
                 WEL =           0.0000                   WEL =           0.0000     SSM_WEL1                         
                 WEL =           0.1960                   WEL =       5.0000E-04     SSM_WEL2                         

            TOTAL IN =           0.1960              TOTAL IN =       5.0000E-04

          OUT:                                     OUT:
          ----                                     ----
     STORAGE-AQUEOUS =       9.3992E-02       STORAGE-AQUEOUS =       1.6807E-04     MST                              
                 WEL =           0.1020                   WEL =       3.3194E-04     SSM_WEL1                         
                 WEL =           0.0000                   WEL =           0.0000     SSM_WEL2                         

           TOTAL OUT =           0.1960             TOTAL OUT =       5.0001E-04

            IN - OUT =      -2.0435E-06              IN - OUT =      -6.0292E-09

 PERCENT DISCREPANCY =          -0.00     PERCENT DISCREPANCY =          -0.00




         TIME SUMMARY AT END OF TIME STEP   96 IN STRESS PERIOD    2
                    SECONDS     MINUTES      HOURS       DAYS        YEARS
                    -----------------------------------------------------------
   TIME STEP LENGTH 1.72800E+05  2880.0      48.000      2.0000     5.47570E-03
 STRESS PERIOD TIME 1.65888E+07 2.76480E+05  4608.0      192.00     0.52567    
         TOTAL TIME 3.38688E+07 5.64480E+05  9408.0      392.00      1.0732    


end timestep


start timestep kper="2" kstp="97" mode="normal"

 UBDSV1 SAVING     FLOW-JA-FACE ON UNIT   1030 AT TIME STEP     97, STRESS PERIOD      2
 UBDSV1 SAVING  STORAGE-AQUEOUS ON UNIT   1030 AT TIME STEP     97, STRESS PERIOD      2
 UBDSV06 SAVING  SOURCE-SINK MIX IN MODEL SVA_TM_T         PACKAGE SVA_TM_T        CONNECTED TO MODEL SVA_TM_T         PACKAGE SSM              ON UNIT   1030 AT TIME STEP     97, STRESS PERIOD      2

 CONCENTRATION WILL BE SAVED ON UNIT 1031 AT END OF TIME STEP   97, STRESS PERIOD    2


  MASS BUDGET FOR ENTIRE MODEL AT END OF TIME STEP   97, STRESS PERIOD   2
  ---------------------------------------------------------------------------------------------------

     CUMULATIVE MASS      M       RATES FOR THIS TIME STEP      M/T          PACKAGE NAME    
     ------------------                 ------------------------                     ----------------

           IN:                                      IN:
           ---                                      ---
     STORAGE-AQUEOUS =       2.5566E-05       STORAGE-AQUEOUS =       3.9746E-15     MST                              
                 WEL =           0.0000                   WEL =           0.0000     SSM_WEL1                         
                 WEL =           0.1970                   WEL =       5.0000E-04     SSM_WEL2                         

            TOTAL IN =           0.1970              TOTAL IN =       5.0000E-04

          OUT:                                     OUT:
          ----                                     ----
     STORAGE-AQUEOUS =       9.4326E-02       STORAGE-AQUEOUS =       1.6730E-04     MST                              
                 WEL =           0.1027                   WEL =       3.3271E-04     SSM_WEL1                         
                 WEL =           0.0000                   WEL =           0.0000     SSM_WEL2                         

           TOTAL OUT =           0.1970             TOTAL OUT =       5.0001E-04

            IN - OUT =      -2.0555E-06              IN - OUT =      -5.9932E-09

 PERCENT DISCREPANCY =          -0.00     PERCENT DISCREPANCY =          -0.00




         TIME SUMMARY AT END OF TIME STEP   97 IN STRESS PERIOD    2
                    SECONDS     MINUTES      HOURS       DAYS        YEARS
                    -----------------------------------------------------------
   TIME STEP LENGTH 1.72800E+05  2880.0      48.000      2.0000     5.47570E-03
 STRESS PERIOD TIME 1.67616E+07 2.79360E+05  4656.0      194.00     0.53114    
         TOTAL TIME 3.40416E+07 5.67360E+05  9456.0      394.00      1.0787    


end timestep


start timestep kper="2" kstp="98" mode="normal"

 UBDSV1 SAVING     FLOW-JA-FACE ON UNIT   1030 AT TIME STEP     98, STRESS PERIOD      2
 UBDSV1 SAVING  STORAGE-AQUEOUS ON UNIT   1030 AT TIME STEP     98, STRESS PERIOD      2
 UBDSV06 SAVING  SOURCE-SINK MIX IN MODEL SVA_TM_T         PACKAGE SVA_TM_T        CONNECTED TO MODEL SVA_TM_T         PACKAGE SSM              ON UNIT   1030 AT TIME STEP     98, STRESS PERIOD      2

 CONCENTRATION WILL BE SAVED ON UNIT 1031 AT END OF TIME STEP   98, STRESS PERIOD    2


  MASS BUDGET FOR ENTIRE MODEL AT END OF TIME STEP   98, STRESS PERIOD   2
  ---------------------------------------------------------------------------------------------------

     CUMULATIVE MASS      M       RATES FOR THIS TIME STEP      M/T          PACKAGE NAME    
     ------------------                 ------------------------                     ----------------

           IN:                                      IN:
           ---                                      ---
     STORAGE-AQUEOUS =       2.5566E-05       STORAGE-AQUEOUS =       7.3711E-15     MST                              
                 WEL =           0.0000                   WEL =           0.0000     SSM_WEL1                         
                 WEL =           0.1980                   WEL =       5.0000E-04     SSM_WEL2                         

            TOTAL IN =           0.1980              TOTAL IN =       5.0000E-04

          OUT:                                     OUT:
          ----                                     ----
     STORAGE-AQUEOUS =       9.4659E-02       STORAGE-AQUEOUS =       1.6653E-04     MST                              
                 WEL =           0.1034                   WEL =       3.3347E-04     SSM_WEL1                         
                 WEL =           0.0000                   WEL =           0.0000     SSM_WEL2                         

           TOTAL OUT =           0.1980             TOTAL OUT =       5.0001E-04

            IN - OUT =      -2.0675E-06              IN - OUT =      -5.9839E-09

 PERCENT DISCREPANCY =          -0.00     PERCENT DISCREPANCY =          -0.00




         TIME SUMMARY AT END OF TIME STEP   98 IN STRESS PERIOD    2
                    SECONDS     MINUTES      HOURS       DAYS        YEARS
                    -----------------------------------------------------------
   TIME STEP LENGTH 1.72800E+05  2880.0      48.000      2.0000     5.47570E-03
 STRESS PERIOD TIME 1.69344E+07 2.82240E+05  4704.0      196.00     0.53662    
         TOTAL TIME 3.42144E+07 5.70240E+05  9504.0      396.00      1.0842    


end timestep


start timestep kper="2" kstp="99" mode="normal"

 UBDSV1 SAVING     FLOW-JA-FACE ON UNIT   1030 AT TIME STEP     99, STRESS PERIOD      2
 UBDSV1 SAVING  STORAGE-AQUEOUS ON UNIT   1030 AT TIME STEP     99, STRESS PERIOD      2
 UBDSV06 SAVING  SOURCE-SINK MIX IN MODEL SVA_TM_T         PACKAGE SVA_TM_T        CONNECTED TO MODEL SVA_TM_T         PACKAGE SSM              ON UNIT   1030 AT TIME STEP     99, STRESS PERIOD      2

 CONCENTRATION WILL BE SAVED ON UNIT 1031 AT END OF TIME STEP   99, STRESS PERIOD    2


  MASS BUDGET FOR ENTIRE MODEL AT END OF TIME STEP   99, STRESS PERIOD   2
  ---------------------------------------------------------------------------------------------------

     CUMULATIVE MASS      M       RATES FOR THIS TIME STEP      M/T          PACKAGE NAME    
     ------------------                 ------------------------                     ----------------

           IN:                                      IN:
           ---                                      ---
     STORAGE-AQUEOUS =       2.5566E-05       STORAGE-AQUEOUS =       9.7144E-15     MST                              
                 WEL =           0.0000                   WEL =           0.0000     SSM_WEL1                         
                 WEL =           0.1990                   WEL =       5.0000E-04     SSM_WEL2                         

            TOTAL IN =           0.1990              TOTAL IN =       5.0000E-04

          OUT:                                     OUT:
          ----                                     ----
     STORAGE-AQUEOUS =       9.4991E-02       STORAGE-AQUEOUS =       1.6576E-04     MST                              
                 WEL =           0.1040                   WEL =       3.3424E-04     SSM_WEL1                         
                 WEL =           0.0000                   WEL =           0.0000     SSM_WEL2                         

           TOTAL OUT =           0.1990             TOTAL OUT =       5.0001E-04

            IN - OUT =      -2.0794E-06              IN - OUT =      -5.9372E-09

 PERCENT DISCREPANCY =          -0.00     PERCENT DISCREPANCY =          -0.00




         TIME SUMMARY AT END OF TIME STEP   99 IN STRESS PERIOD    2
                    SECONDS     MINUTES      HOURS       DAYS        YEARS
                    -----------------------------------------------------------
   TIME STEP LENGTH 1.72800E+05  2880.0      48.000      2.0000     5.47570E-03
 STRESS PERIOD TIME 1.71072E+07 2.85120E+05  4752.0      198.00     0.54209    
         TOTAL TIME 3.43872E+07 5.73120E+05  9552.0      398.00      1.0897    


end timestep


start timestep kper="2" kstp="100" mode="normal"

 UBDSV1 SAVING     FLOW-JA-FACE ON UNIT   1030 AT TIME STEP    100, STRESS PERIOD      2
 UBDSV1 SAVING  STORAGE-AQUEOUS ON UNIT   1030 AT TIME STEP    100, STRESS PERIOD      2
 UBDSV06 SAVING  SOURCE-SINK MIX IN MODEL SVA_TM_T         PACKAGE SVA_TM_T        CONNECTED TO MODEL SVA_TM_T         PACKAGE SSM              ON UNIT   1030 AT TIME STEP    100, STRESS PERIOD      2

 CONCENTRATION WILL BE SAVED ON UNIT 1031 AT END OF TIME STEP  100, STRESS PERIOD    2


  MASS BUDGET FOR ENTIRE MODEL AT END OF TIME STEP  100, STRESS PERIOD   2
  ---------------------------------------------------------------------------------------------------

     CUMULATIVE MASS      M       RATES FOR THIS TIME STEP      M/T          PACKAGE NAME    
     ------------------                 ------------------------                     ----------------

           IN:                                      IN:
           ---                                      ---
     STORAGE-AQUEOUS =       2.5566E-05       STORAGE-AQUEOUS =       1.3156E-14     MST                              
                 WEL =           0.0000                   WEL =           0.0000     SSM_WEL1                         
                 WEL =           0.2000                   WEL =       5.0000E-04     SSM_WEL2                         

            TOTAL IN =           0.2000              TOTAL IN =       5.0000E-04

          OUT:                                     OUT:
          ----                                     ----
     STORAGE-AQUEOUS =       9.5321E-02       STORAGE-AQUEOUS =       1.6499E-04     MST                              
                 WEL =           0.1047                   WEL =       3.3501E-04     SSM_WEL1                         
                 WEL =           0.0000                   WEL =           0.0000     SSM_WEL2                         

           TOTAL OUT =           0.2000             TOTAL OUT =       5.0001E-04

            IN - OUT =      -2.0911E-06              IN - OUT =      -5.8867E-09

 PERCENT DISCREPANCY =          -0.00     PERCENT DISCREPANCY =          -0.00




         TIME SUMMARY AT END OF TIME STEP  100 IN STRESS PERIOD    2
                    SECONDS     MINUTES      HOURS       DAYS        YEARS
                    -----------------------------------------------------------
   TIME STEP LENGTH 1.72800E+05  2880.0      48.000      2.0000     5.47570E-03
 STRESS PERIOD TIME 1.72800E+07 2.88000E+05  4800.0      200.00     0.54757    
         TOTAL TIME 3.45600E+07 5.76000E+05  9600.0      400.00      1.0951    


end timestep


start timestep kper="2" kstp="101" mode="normal"

 UBDSV1 SAVING     FLOW-JA-FACE ON UNIT   1030 AT TIME STEP    101, STRESS PERIOD      2
 UBDSV1 SAVING  STORAGE-AQUEOUS ON UNIT   1030 AT TIME STEP    101, STRESS PERIOD      2
 UBDSV06 SAVING  SOURCE-SINK MIX IN MODEL SVA_TM_T         PACKAGE SVA_TM_T        CONNECTED TO MODEL SVA_TM_T         PACKAGE SSM              ON UNIT   1030 AT TIME STEP    101, STRESS PERIOD      2

 CONCENTRATION WILL BE SAVED ON UNIT 1031 AT END OF TIME STEP  101, STRESS PERIOD    2


  MASS BUDGET FOR ENTIRE MODEL AT END OF TIME STEP  101, STRESS PERIOD   2
  ---------------------------------------------------------------------------------------------------

     CUMULATIVE MASS      M       RATES FOR THIS TIME STEP      M/T          PACKAGE NAME    
     ------------------                 ------------------------                     ----------------

           IN:                                      IN:
           ---                                      ---
     STORAGE-AQUEOUS =       2.5566E-05       STORAGE-AQUEOUS =       1.5621E-14     MST                              
                 WEL =           0.0000                   WEL =           0.0000     SSM_WEL1                         
                 WEL =           0.2010                   WEL =       5.0000E-04     SSM_WEL2                         

            TOTAL IN =           0.2010              TOTAL IN =       5.0000E-04

          OUT:                                     OUT:
          ----                                     ----
     STORAGE-AQUEOUS =       9.5649E-02       STORAGE-AQUEOUS =       1.6423E-04     MST                              
                 WEL =           0.1054                   WEL =       3.3578E-04     SSM_WEL1                         
                 WEL =           0.0000                   WEL =           0.0000     SSM_WEL2                         

           TOTAL OUT =           0.2010             TOTAL OUT =       5.0001E-04

            IN - OUT =      -2.1028E-06              IN - OUT =      -5.8413E-09

 PERCENT DISCREPANCY =          -0.00     PERCENT DISCREPANCY =          -0.00




         TIME SUMMARY AT END OF TIME STEP  101 IN STRESS PERIOD    2
                    SECONDS     MINUTES      HOURS       DAYS        YEARS
                    -----------------------------------------------------------
   TIME STEP LENGTH 1.72800E+05  2880.0      48.000      2.0000     5.47570E-03
 STRESS PERIOD TIME 1.74528E+07 2.90880E+05  4848.0      202.00     0.55305    
         TOTAL TIME 3.47328E+07 5.78880E+05  9648.0      402.00      1.1006    


end timestep


start timestep kper="2" kstp="102" mode="normal"

 UBDSV1 SAVING     FLOW-JA-FACE ON UNIT   1030 AT TIME STEP    102, STRESS PERIOD      2
 UBDSV1 SAVING  STORAGE-AQUEOUS ON UNIT   1030 AT TIME STEP    102, STRESS PERIOD      2
 UBDSV06 SAVING  SOURCE-SINK MIX IN MODEL SVA_TM_T         PACKAGE SVA_TM_T        CONNECTED TO MODEL SVA_TM_T         PACKAGE SSM              ON UNIT   1030 AT TIME STEP    102, STRESS PERIOD      2

 CONCENTRATION WILL BE SAVED ON UNIT 1031 AT END OF TIME STEP  102, STRESS PERIOD    2


  MASS BUDGET FOR ENTIRE MODEL AT END OF TIME STEP  102, STRESS PERIOD   2
  ---------------------------------------------------------------------------------------------------

     CUMULATIVE MASS      M       RATES FOR THIS TIME STEP      M/T          PACKAGE NAME    
     ------------------                 ------------------------                     ----------------

           IN:                                      IN:
           ---                                      ---
     STORAGE-AQUEOUS =       2.5566E-05       STORAGE-AQUEOUS =       1.6316E-14     MST                              
                 WEL =           0.0000                   WEL =           0.0000     SSM_WEL1                         
                 WEL =           0.2020                   WEL =       5.0000E-04     SSM_WEL2                         

            TOTAL IN =           0.2020              TOTAL IN =       5.0000E-04

          OUT:                                     OUT:
          ----                                     ----
     STORAGE-AQUEOUS =       9.5976E-02       STORAGE-AQUEOUS =       1.6345E-04     MST                              
                 WEL =           0.1061                   WEL =       3.3655E-04     SSM_WEL1                         
                 WEL =           0.0000                   WEL =           0.0000     SSM_WEL2                         

           TOTAL OUT =           0.2020             TOTAL OUT =       5.0001E-04

            IN - OUT =      -2.1144E-06              IN - OUT =      -5.7642E-09

 PERCENT DISCREPANCY =          -0.00     PERCENT DISCREPANCY =          -0.00




         TIME SUMMARY AT END OF TIME STEP  102 IN STRESS PERIOD    2
                    SECONDS     MINUTES      HOURS       DAYS        YEARS
                    -----------------------------------------------------------
   TIME STEP LENGTH 1.72800E+05  2880.0      48.000      2.0000     5.47570E-03
 STRESS PERIOD TIME 1.76256E+07 2.93760E+05  4896.0      204.00     0.55852    
         TOTAL TIME 3.49056E+07 5.81760E+05  9696.0      404.00      1.1061    


end timestep


start timestep kper="2" kstp="103" mode="normal"

 UBDSV1 SAVING     FLOW-JA-FACE ON UNIT   1030 AT TIME STEP    103, STRESS PERIOD      2
 UBDSV1 SAVING  STORAGE-AQUEOUS ON UNIT   1030 AT TIME STEP    103, STRESS PERIOD      2
 UBDSV06 SAVING  SOURCE-SINK MIX IN MODEL SVA_TM_T         PACKAGE SVA_TM_T        CONNECTED TO MODEL SVA_TM_T         PACKAGE SSM              ON UNIT   1030 AT TIME STEP    103, STRESS PERIOD      2

 CONCENTRATION WILL BE SAVED ON UNIT 1031 AT END OF TIME STEP  103, STRESS PERIOD    2


  MASS BUDGET FOR ENTIRE MODEL AT END OF TIME STEP  103, STRESS PERIOD   2
  ---------------------------------------------------------------------------------------------------

     CUMULATIVE MASS      M       RATES FOR THIS TIME STEP      M/T          PACKAGE NAME    
     ------------------                 ------------------------                     ----------------

           IN:                                      IN:
           ---                                      ---
     STORAGE-AQUEOUS =       2.5566E-05       STORAGE-AQUEOUS =       1.5964E-14     MST                              
                 WEL =           0.0000                   WEL =           0.0000     SSM_WEL1                         
                 WEL =           0.2030                   WEL =       5.0000E-04     SSM_WEL2                         

            TOTAL IN =           0.2030              TOTAL IN =       5.0000E-04

          OUT:                                     OUT:
          ----                                     ----
     STORAGE-AQUEOUS =       9.6302E-02       STORAGE-AQUEOUS =       1.6268E-04     MST                              
                 WEL =           0.1067                   WEL =       3.3732E-04     SSM_WEL1                         
                 WEL =           0.0000                   WEL =           0.0000     SSM_WEL2                         

           TOTAL OUT =           0.2030             TOTAL OUT =       5.0001E-04

            IN - OUT =      -2.1258E-06              IN - OUT =      -5.7259E-09

 PERCENT DISCREPANCY =          -0.00     PERCENT DISCREPANCY =          -0.00




         TIME SUMMARY AT END OF TIME STEP  103 IN STRESS PERIOD    2
                    SECONDS     MINUTES      HOURS       DAYS        YEARS
                    -----------------------------------------------------------
   TIME STEP LENGTH 1.72800E+05  2880.0      48.000      2.0000     5.47570E-03
 STRESS PERIOD TIME 1.77984E+07 2.96640E+05  4944.0      206.00     0.56400    
         TOTAL TIME 3.50784E+07 5.84640E+05  9744.0      406.00      1.1116    


end timestep


start timestep kper="2" kstp="104" mode="normal"

 UBDSV1 SAVING     FLOW-JA-FACE ON UNIT   1030 AT TIME STEP    104, STRESS PERIOD      2
 UBDSV1 SAVING  STORAGE-AQUEOUS ON UNIT   1030 AT TIME STEP    104, STRESS PERIOD      2
 UBDSV06 SAVING  SOURCE-SINK MIX IN MODEL SVA_TM_T         PACKAGE SVA_TM_T        CONNECTED TO MODEL SVA_TM_T         PACKAGE SSM              ON UNIT   1030 AT TIME STEP    104, STRESS PERIOD      2

 CONCENTRATION WILL BE SAVED ON UNIT 1031 AT END OF TIME STEP  104, STRESS PERIOD    2


  MASS BUDGET FOR ENTIRE MODEL AT END OF TIME STEP  104, STRESS PERIOD   2
  ---------------------------------------------------------------------------------------------------

     CUMULATIVE MASS      M       RATES FOR THIS TIME STEP      M/T          PACKAGE NAME    
     ------------------                 ------------------------                     ----------------

           IN:                                      IN:
           ---                                      ---
     STORAGE-AQUEOUS =       2.5566E-05       STORAGE-AQUEOUS =       1.4977E-14     MST                              
                 WEL =           0.0000                   WEL =           0.0000     SSM_WEL1                         
                 WEL =           0.2040                   WEL =       5.0000E-04     SSM_WEL2                         

            TOTAL IN =           0.2040              TOTAL IN =       5.0000E-04

          OUT:                                     OUT:
          ----                                     ----
     STORAGE-AQUEOUS =       9.6625E-02       STORAGE-AQUEOUS =       1.6191E-04     MST                              
                 WEL =           0.1074                   WEL =       3.3809E-04     SSM_WEL1                         
                 WEL =           0.0000                   WEL =           0.0000     SSM_WEL2                         

           TOTAL OUT =           0.2040             TOTAL OUT =       5.0001E-04

            IN - OUT =      -2.1372E-06              IN - OUT =      -5.6769E-09

 PERCENT DISCREPANCY =          -0.00     PERCENT DISCREPANCY =          -0.00




         TIME SUMMARY AT END OF TIME STEP  104 IN STRESS PERIOD    2
                    SECONDS     MINUTES      HOURS       DAYS        YEARS
                    -----------------------------------------------------------
   TIME STEP LENGTH 1.72800E+05  2880.0      48.000      2.0000     5.47570E-03
 STRESS PERIOD TIME 1.79712E+07 2.99520E+05  4992.0      208.00     0.56947    
         TOTAL TIME 3.52512E+07 5.87520E+05  9792.0      408.00      1.1170    


end timestep


start timestep kper="2" kstp="105" mode="normal"

 UBDSV1 SAVING     FLOW-JA-FACE ON UNIT   1030 AT TIME STEP    105, STRESS PERIOD      2
 UBDSV1 SAVING  STORAGE-AQUEOUS ON UNIT   1030 AT TIME STEP    105, STRESS PERIOD      2
 UBDSV06 SAVING  SOURCE-SINK MIX IN MODEL SVA_TM_T         PACKAGE SVA_TM_T        CONNECTED TO MODEL SVA_TM_T         PACKAGE SSM              ON UNIT   1030 AT TIME STEP    105, STRESS PERIOD      2

 CONCENTRATION WILL BE SAVED ON UNIT 1031 AT END OF TIME STEP  105, STRESS PERIOD    2


  MASS BUDGET FOR ENTIRE MODEL AT END OF TIME STEP  105, STRESS PERIOD   2
  ---------------------------------------------------------------------------------------------------

     CUMULATIVE MASS      M       RATES FOR THIS TIME STEP      M/T          PACKAGE NAME    
     ------------------                 ------------------------                     ----------------

           IN:                                      IN:
           ---                                      ---
     STORAGE-AQUEOUS =       2.5566E-05       STORAGE-AQUEOUS =       1.3756E-14     MST                              
                 WEL =           0.0000                   WEL =           0.0000     SSM_WEL1                         
                 WEL =           0.2050                   WEL =       5.0000E-04     SSM_WEL2                         

            TOTAL IN =           0.2050              TOTAL IN =       5.0000E-04

          OUT:                                     OUT:
          ----                                     ----
     STORAGE-AQUEOUS =       9.6948E-02       STORAGE-AQUEOUS =       1.6114E-04     MST                              
                 WEL =           0.1081                   WEL =       3.3887E-04     SSM_WEL1                         
                 WEL =           0.0000                   WEL =           0.0000     SSM_WEL2                         

           TOTAL OUT =           0.2050             TOTAL OUT =       5.0001E-04

            IN - OUT =      -2.1484E-06              IN - OUT =      -5.6156E-09

 PERCENT DISCREPANCY =          -0.00     PERCENT DISCREPANCY =          -0.00




         TIME SUMMARY AT END OF TIME STEP  105 IN STRESS PERIOD    2
                    SECONDS     MINUTES      HOURS       DAYS        YEARS
                    -----------------------------------------------------------
   TIME STEP LENGTH 1.72800E+05  2880.0      48.000      2.0000     5.47570E-03
 STRESS PERIOD TIME 1.81440E+07 3.02400E+05  5040.0      210.00     0.57495    
         TOTAL TIME 3.54240E+07 5.90400E+05  9840.0      410.00      1.1225    


end timestep


start timestep kper="2" kstp="106" mode="normal"

 UBDSV1 SAVING     FLOW-JA-FACE ON UNIT   1030 AT TIME STEP    106, STRESS PERIOD      2
 UBDSV1 SAVING  STORAGE-AQUEOUS ON UNIT   1030 AT TIME STEP    106, STRESS PERIOD      2
 UBDSV06 SAVING  SOURCE-SINK MIX IN MODEL SVA_TM_T         PACKAGE SVA_TM_T        CONNECTED TO MODEL SVA_TM_T         PACKAGE SSM              ON UNIT   1030 AT TIME STEP    106, STRESS PERIOD      2

 CONCENTRATION WILL BE SAVED ON UNIT 1031 AT END OF TIME STEP  106, STRESS PERIOD    2


  MASS BUDGET FOR ENTIRE MODEL AT END OF TIME STEP  106, STRESS PERIOD   2
  ---------------------------------------------------------------------------------------------------

     CUMULATIVE MASS      M       RATES FOR THIS TIME STEP      M/T          PACKAGE NAME    
     ------------------                 ------------------------                     ----------------

           IN:                                      IN:
           ---                                      ---
     STORAGE-AQUEOUS =       2.5566E-05       STORAGE-AQUEOUS =       1.2506E-14     MST                              
                 WEL =           0.0000                   WEL =           0.0000     SSM_WEL1                         
                 WEL =           0.2060                   WEL =       5.0000E-04     SSM_WEL2                         

            TOTAL IN =           0.2060              TOTAL IN =       5.0000E-04

          OUT:                                     OUT:
          ----                                     ----
     STORAGE-AQUEOUS =       9.7268E-02       STORAGE-AQUEOUS =       1.6036E-04     MST                              
                 WEL =           0.1088                   WEL =       3.3964E-04     SSM_WEL1                         
                 WEL =           0.0000                   WEL =           0.0000     SSM_WEL2                         

           TOTAL OUT =           0.2060             TOTAL OUT =       5.0001E-04

            IN - OUT =      -2.1597E-06              IN - OUT =      -5.6454E-09

 PERCENT DISCREPANCY =          -0.00     PERCENT DISCREPANCY =          -0.00




         TIME SUMMARY AT END OF TIME STEP  106 IN STRESS PERIOD    2
                    SECONDS     MINUTES      HOURS       DAYS        YEARS
                    -----------------------------------------------------------
   TIME STEP LENGTH 1.72800E+05  2880.0      48.000      2.0000     5.47570E-03
 STRESS PERIOD TIME 1.83168E+07 3.05280E+05  5088.0      212.00     0.58042    
         TOTAL TIME 3.55968E+07 5.93280E+05  9888.0      412.00      1.1280    


end timestep


start timestep kper="2" kstp="107" mode="normal"

 UBDSV1 SAVING     FLOW-JA-FACE ON UNIT   1030 AT TIME STEP    107, STRESS PERIOD      2
 UBDSV1 SAVING  STORAGE-AQUEOUS ON UNIT   1030 AT TIME STEP    107, STRESS PERIOD      2
 UBDSV06 SAVING  SOURCE-SINK MIX IN MODEL SVA_TM_T         PACKAGE SVA_TM_T        CONNECTED TO MODEL SVA_TM_T         PACKAGE SSM              ON UNIT   1030 AT TIME STEP    107, STRESS PERIOD      2

 CONCENTRATION WILL BE SAVED ON UNIT 1031 AT END OF TIME STEP  107, STRESS PERIOD    2


  MASS BUDGET FOR ENTIRE MODEL AT END OF TIME STEP  107, STRESS PERIOD   2
  ---------------------------------------------------------------------------------------------------

     CUMULATIVE MASS      M       RATES FOR THIS TIME STEP      M/T          PACKAGE NAME    
     ------------------                 ------------------------                     ----------------

           IN:                                      IN:
           ---                                      ---
     STORAGE-AQUEOUS =       2.5566E-05       STORAGE-AQUEOUS =       1.1365E-14     MST                              
                 WEL =           0.0000                   WEL =           0.0000     SSM_WEL1                         
                 WEL =           0.2070                   WEL =       5.0000E-04     SSM_WEL2                         

            TOTAL IN =           0.2070              TOTAL IN =       5.0000E-04

          OUT:                                     OUT:
          ----                                     ----
     STORAGE-AQUEOUS =       9.7588E-02       STORAGE-AQUEOUS =       1.5959E-04     MST                              
                 WEL =           0.1094                   WEL =       3.4042E-04     SSM_WEL1                         
                 WEL =           0.0000                   WEL =           0.0000     SSM_WEL2                         

           TOTAL OUT =           0.2070             TOTAL OUT =       5.0001E-04

            IN - OUT =      -2.1708E-06              IN - OUT =      -5.5780E-09

 PERCENT DISCREPANCY =          -0.00     PERCENT DISCREPANCY =          -0.00




         TIME SUMMARY AT END OF TIME STEP  107 IN STRESS PERIOD    2
                    SECONDS     MINUTES      HOURS       DAYS        YEARS
                    -----------------------------------------------------------
   TIME STEP LENGTH 1.72800E+05  2880.0      48.000      2.0000     5.47570E-03
 STRESS PERIOD TIME 1.84896E+07 3.08160E+05  5136.0      214.00     0.58590    
         TOTAL TIME 3.57696E+07 5.96160E+05  9936.0      414.00      1.1335    


end timestep


start timestep kper="2" kstp="108" mode="normal"

 UBDSV1 SAVING     FLOW-JA-FACE ON UNIT   1030 AT TIME STEP    108, STRESS PERIOD      2
 UBDSV1 SAVING  STORAGE-AQUEOUS ON UNIT   1030 AT TIME STEP    108, STRESS PERIOD      2
 UBDSV06 SAVING  SOURCE-SINK MIX IN MODEL SVA_TM_T         PACKAGE SVA_TM_T        CONNECTED TO MODEL SVA_TM_T         PACKAGE SSM              ON UNIT   1030 AT TIME STEP    108, STRESS PERIOD      2

 CONCENTRATION WILL BE SAVED ON UNIT 1031 AT END OF TIME STEP  108, STRESS PERIOD    2


  MASS BUDGET FOR ENTIRE MODEL AT END OF TIME STEP  108, STRESS PERIOD   2
  ---------------------------------------------------------------------------------------------------

     CUMULATIVE MASS      M       RATES FOR THIS TIME STEP      M/T          PACKAGE NAME    
     ------------------                 ------------------------                     ----------------

           IN:                                      IN:
           ---                                      ---
     STORAGE-AQUEOUS =       2.5566E-05       STORAGE-AQUEOUS =       1.0326E-14     MST                              
                 WEL =           0.0000                   WEL =           0.0000     SSM_WEL1                         
                 WEL =           0.2080                   WEL =       5.0000E-04     SSM_WEL2                         

            TOTAL IN =           0.2080              TOTAL IN =       5.0000E-04

          OUT:                                     OUT:
          ----                                     ----
     STORAGE-AQUEOUS =       9.7905E-02       STORAGE-AQUEOUS =       1.5881E-04     MST                              
                 WEL =           0.1101                   WEL =       3.4119E-04     SSM_WEL1                         
                 WEL =           0.0000                   WEL =           0.0000     SSM_WEL2                         

           TOTAL OUT =           0.2080             TOTAL OUT =       5.0001E-04

            IN - OUT =      -2.1818E-06              IN - OUT =      -5.4884E-09

 PERCENT DISCREPANCY =          -0.00     PERCENT DISCREPANCY =          -0.00




         TIME SUMMARY AT END OF TIME STEP  108 IN STRESS PERIOD    2
                    SECONDS     MINUTES      HOURS       DAYS        YEARS
                    -----------------------------------------------------------
   TIME STEP LENGTH 1.72800E+05  2880.0      48.000      2.0000     5.47570E-03
 STRESS PERIOD TIME 1.86624E+07 3.11040E+05  5184.0      216.00     0.59138    
         TOTAL TIME 3.59424E+07 5.99040E+05  9984.0      416.00      1.1389    


end timestep


start timestep kper="2" kstp="109" mode="normal"

 UBDSV1 SAVING     FLOW-JA-FACE ON UNIT   1030 AT TIME STEP    109, STRESS PERIOD      2
 UBDSV1 SAVING  STORAGE-AQUEOUS ON UNIT   1030 AT TIME STEP    109, STRESS PERIOD      2
 UBDSV06 SAVING  SOURCE-SINK MIX IN MODEL SVA_TM_T         PACKAGE SVA_TM_T        CONNECTED TO MODEL SVA_TM_T         PACKAGE SSM              ON UNIT   1030 AT TIME STEP    109, STRESS PERIOD      2

 CONCENTRATION WILL BE SAVED ON UNIT 1031 AT END OF TIME STEP  109, STRESS PERIOD    2


  MASS BUDGET FOR ENTIRE MODEL AT END OF TIME STEP  109, STRESS PERIOD   2
  ---------------------------------------------------------------------------------------------------

     CUMULATIVE MASS      M       RATES FOR THIS TIME STEP      M/T          PACKAGE NAME    
     ------------------                 ------------------------                     ----------------

           IN:                                      IN:
           ---                                      ---
     STORAGE-AQUEOUS =       2.5566E-05       STORAGE-AQUEOUS =       8.1412E-15     MST                              
                 WEL =           0.0000                   WEL =           0.0000     SSM_WEL1                         
                 WEL =           0.2090                   WEL =       5.0000E-04     SSM_WEL2                         

            TOTAL IN =           0.2090              TOTAL IN =       5.0000E-04

          OUT:                                     OUT:
          ----                                     ----
     STORAGE-AQUEOUS =       9.8221E-02       STORAGE-AQUEOUS =       1.5804E-04     MST                              
                 WEL =           0.1108                   WEL =       3.4197E-04     SSM_WEL1                         
                 WEL =           0.0000                   WEL =           0.0000     SSM_WEL2                         

           TOTAL OUT =           0.2090             TOTAL OUT =       5.0001E-04

            IN - OUT =      -2.1926E-06              IN - OUT =      -5.4155E-09

 PERCENT DISCREPANCY =          -0.00     PERCENT DISCREPANCY =          -0.00




         TIME SUMMARY AT END OF TIME STEP  109 IN STRESS PERIOD    2
                    SECONDS     MINUTES      HOURS       DAYS        YEARS
                    -----------------------------------------------------------
   TIME STEP LENGTH 1.72800E+05  2880.0      48.000      2.0000     5.47570E-03
 STRESS PERIOD TIME 1.88352E+07 3.13920E+05  5232.0      218.00     0.59685    
         TOTAL TIME 3.61152E+07 6.01920E+05  10032.      418.00      1.1444    


end timestep


start timestep kper="2" kstp="110" mode="normal"

 UBDSV1 SAVING     FLOW-JA-FACE ON UNIT   1030 AT TIME STEP    110, STRESS PERIOD      2
 UBDSV1 SAVING  STORAGE-AQUEOUS ON UNIT   1030 AT TIME STEP    110, STRESS PERIOD      2
 UBDSV06 SAVING  SOURCE-SINK MIX IN MODEL SVA_TM_T         PACKAGE SVA_TM_T        CONNECTED TO MODEL SVA_TM_T         PACKAGE SSM              ON UNIT   1030 AT TIME STEP    110, STRESS PERIOD      2

 CONCENTRATION WILL BE SAVED ON UNIT 1031 AT END OF TIME STEP  110, STRESS PERIOD    2


  MASS BUDGET FOR ENTIRE MODEL AT END OF TIME STEP  110, STRESS PERIOD   2
  ---------------------------------------------------------------------------------------------------

     CUMULATIVE MASS      M       RATES FOR THIS TIME STEP      M/T          PACKAGE NAME    
     ------------------                 ------------------------                     ----------------

           IN:                                      IN:
           ---                                      ---
     STORAGE-AQUEOUS =       2.5566E-05       STORAGE-AQUEOUS =       6.5812E-15     MST                              
                 WEL =           0.0000                   WEL =           0.0000     SSM_WEL1                         
                 WEL =           0.2100                   WEL =       5.0000E-04     SSM_WEL2                         

            TOTAL IN =           0.2100              TOTAL IN =       5.0000E-04

          OUT:                                     OUT:
          ----                                     ----
     STORAGE-AQUEOUS =       9.8536E-02       STORAGE-AQUEOUS =       1.5726E-04     MST                              
                 WEL =           0.1115                   WEL =       3.4275E-04     SSM_WEL1                         
                 WEL =           0.0000                   WEL =           0.0000     SSM_WEL2                         

           TOTAL OUT =           0.2100             TOTAL OUT =       5.0001E-04

            IN - OUT =      -2.2034E-06              IN - OUT =      -5.3856E-09

 PERCENT DISCREPANCY =          -0.00     PERCENT DISCREPANCY =          -0.00




         TIME SUMMARY AT END OF TIME STEP  110 IN STRESS PERIOD    2
                    SECONDS     MINUTES      HOURS       DAYS        YEARS
                    -----------------------------------------------------------
   TIME STEP LENGTH 1.72800E+05  2880.0      48.000      2.0000     5.47570E-03
 STRESS PERIOD TIME 1.90080E+07 3.16800E+05  5280.0      220.00     0.60233    
         TOTAL TIME 3.62880E+07 6.04800E+05  10080.      420.00      1.1499    


end timestep


start timestep kper="2" kstp="111" mode="normal"

 UBDSV1 SAVING     FLOW-JA-FACE ON UNIT   1030 AT TIME STEP    111, STRESS PERIOD      2
 UBDSV1 SAVING  STORAGE-AQUEOUS ON UNIT   1030 AT TIME STEP    111, STRESS PERIOD      2
 UBDSV06 SAVING  SOURCE-SINK MIX IN MODEL SVA_TM_T         PACKAGE SVA_TM_T        CONNECTED TO MODEL SVA_TM_T         PACKAGE SSM              ON UNIT   1030 AT TIME STEP    111, STRESS PERIOD      2

 CONCENTRATION WILL BE SAVED ON UNIT 1031 AT END OF TIME STEP  111, STRESS PERIOD    2


  MASS BUDGET FOR ENTIRE MODEL AT END OF TIME STEP  111, STRESS PERIOD   2
  ---------------------------------------------------------------------------------------------------

     CUMULATIVE MASS      M       RATES FOR THIS TIME STEP      M/T          PACKAGE NAME    
     ------------------                 ------------------------                     ----------------

           IN:                                      IN:
           ---                                      ---
     STORAGE-AQUEOUS =       2.5566E-05       STORAGE-AQUEOUS =       5.4568E-15     MST                              
                 WEL =           0.0000                   WEL =           0.0000     SSM_WEL1                         
                 WEL =           0.2110                   WEL =       5.0000E-04     SSM_WEL2                         

            TOTAL IN =           0.2110              TOTAL IN =       5.0000E-04

          OUT:                                     OUT:
          ----                                     ----
     STORAGE-AQUEOUS =       9.8849E-02       STORAGE-AQUEOUS =       1.5648E-04     MST                              
                 WEL =           0.1122                   WEL =       3.4352E-04     SSM_WEL1                         
                 WEL =           0.0000                   WEL =           0.0000     SSM_WEL2                         

           TOTAL OUT =           0.2110             TOTAL OUT =       5.0001E-04

            IN - OUT =      -2.2140E-06              IN - OUT =      -5.3011E-09

 PERCENT DISCREPANCY =          -0.00     PERCENT DISCREPANCY =          -0.00




         TIME SUMMARY AT END OF TIME STEP  111 IN STRESS PERIOD    2
                    SECONDS     MINUTES      HOURS       DAYS        YEARS
                    -----------------------------------------------------------
   TIME STEP LENGTH 1.72800E+05  2880.0      48.000      2.0000     5.47570E-03
 STRESS PERIOD TIME 1.91808E+07 3.19680E+05  5328.0      222.00     0.60780    
         TOTAL TIME 3.64608E+07 6.07680E+05  10128.      422.00      1.1554    


end timestep


start timestep kper="2" kstp="112" mode="normal"

 UBDSV1 SAVING     FLOW-JA-FACE ON UNIT   1030 AT TIME STEP    112, STRESS PERIOD      2
 UBDSV1 SAVING  STORAGE-AQUEOUS ON UNIT   1030 AT TIME STEP    112, STRESS PERIOD      2
 UBDSV06 SAVING  SOURCE-SINK MIX IN MODEL SVA_TM_T         PACKAGE SVA_TM_T        CONNECTED TO MODEL SVA_TM_T         PACKAGE SSM              ON UNIT   1030 AT TIME STEP    112, STRESS PERIOD      2

 CONCENTRATION WILL BE SAVED ON UNIT 1031 AT END OF TIME STEP  112, STRESS PERIOD    2


  MASS BUDGET FOR ENTIRE MODEL AT END OF TIME STEP  112, STRESS PERIOD   2
  ---------------------------------------------------------------------------------------------------

     CUMULATIVE MASS      M       RATES FOR THIS TIME STEP      M/T          PACKAGE NAME    
     ------------------                 ------------------------                     ----------------

           IN:                                      IN:
           ---                                      ---
     STORAGE-AQUEOUS =       2.5566E-05       STORAGE-AQUEOUS =       4.7102E-15     MST                              
                 WEL =           0.0000                   WEL =           0.0000     SSM_WEL1                         
                 WEL =           0.2120                   WEL =       5.0000E-04     SSM_WEL2                         

            TOTAL IN =           0.2120              TOTAL IN =       5.0000E-04

          OUT:                                     OUT:
          ----                                     ----
     STORAGE-AQUEOUS =       9.9160E-02       STORAGE-AQUEOUS =       1.5570E-04     MST                              
                 WEL =           0.1129                   WEL =       3.4430E-04     SSM_WEL1                         
                 WEL =           0.0000                   WEL =           0.0000     SSM_WEL2                         

           TOTAL OUT =           0.2120             TOTAL OUT =       5.0001E-04

            IN - OUT =      -2.2245E-06              IN - OUT =      -5.2581E-09

 PERCENT DISCREPANCY =          -0.00     PERCENT DISCREPANCY =          -0.00




         TIME SUMMARY AT END OF TIME STEP  112 IN STRESS PERIOD    2
                    SECONDS     MINUTES      HOURS       DAYS        YEARS
                    -----------------------------------------------------------
   TIME STEP LENGTH 1.72800E+05  2880.0      48.000      2.0000     5.47570E-03
 STRESS PERIOD TIME 1.93536E+07 3.22560E+05  5376.0      224.00     0.61328    
         TOTAL TIME 3.66336E+07 6.10560E+05  10176.      424.00      1.1608    


end timestep


start timestep kper="2" kstp="113" mode="normal"

 UBDSV1 SAVING     FLOW-JA-FACE ON UNIT   1030 AT TIME STEP    113, STRESS PERIOD      2
 UBDSV1 SAVING  STORAGE-AQUEOUS ON UNIT   1030 AT TIME STEP    113, STRESS PERIOD      2
 UBDSV06 SAVING  SOURCE-SINK MIX IN MODEL SVA_TM_T         PACKAGE SVA_TM_T        CONNECTED TO MODEL SVA_TM_T         PACKAGE SSM              ON UNIT   1030 AT TIME STEP    113, STRESS PERIOD      2

 CONCENTRATION WILL BE SAVED ON UNIT 1031 AT END OF TIME STEP  113, STRESS PERIOD    2


  MASS BUDGET FOR ENTIRE MODEL AT END OF TIME STEP  113, STRESS PERIOD   2
  ---------------------------------------------------------------------------------------------------

     CUMULATIVE MASS      M       RATES FOR THIS TIME STEP      M/T          PACKAGE NAME    
     ------------------                 ------------------------                     ----------------

           IN:                                      IN:
           ---                                      ---
     STORAGE-AQUEOUS =       2.5566E-05       STORAGE-AQUEOUS =       4.2899E-15     MST                              
                 WEL =           0.0000                   WEL =           0.0000     SSM_WEL1                         
                 WEL =           0.2130                   WEL =       5.0000E-04     SSM_WEL2                         

            TOTAL IN =           0.2130              TOTAL IN =       5.0000E-04

          OUT:                                     OUT:
          ----                                     ----
     STORAGE-AQUEOUS =       9.9470E-02       STORAGE-AQUEOUS =       1.5492E-04     MST                              
                 WEL =           0.1136                   WEL =       3.4508E-04     SSM_WEL1                         
                 WEL =           0.0000                   WEL =           0.0000     SSM_WEL2                         

           TOTAL OUT =           0.2130             TOTAL OUT =       5.0001E-04

            IN - OUT =      -2.2350E-06              IN - OUT =      -5.2485E-09

 PERCENT DISCREPANCY =          -0.00     PERCENT DISCREPANCY =          -0.00




         TIME SUMMARY AT END OF TIME STEP  113 IN STRESS PERIOD    2
                    SECONDS     MINUTES      HOURS       DAYS        YEARS
                    -----------------------------------------------------------
   TIME STEP LENGTH 1.72800E+05  2880.0      48.000      2.0000     5.47570E-03
 STRESS PERIOD TIME 1.95264E+07 3.25440E+05  5424.0      226.00     0.61875    
         TOTAL TIME 3.68064E+07 6.13440E+05  10224.      426.00      1.1663    


end timestep


start timestep kper="2" kstp="114" mode="normal"

 UBDSV1 SAVING     FLOW-JA-FACE ON UNIT   1030 AT TIME STEP    114, STRESS PERIOD      2
 UBDSV1 SAVING  STORAGE-AQUEOUS ON UNIT   1030 AT TIME STEP    114, STRESS PERIOD      2
 UBDSV06 SAVING  SOURCE-SINK MIX IN MODEL SVA_TM_T         PACKAGE SVA_TM_T        CONNECTED TO MODEL SVA_TM_T         PACKAGE SSM              ON UNIT   1030 AT TIME STEP    114, STRESS PERIOD      2

 CONCENTRATION WILL BE SAVED ON UNIT 1031 AT END OF TIME STEP  114, STRESS PERIOD    2


  MASS BUDGET FOR ENTIRE MODEL AT END OF TIME STEP  114, STRESS PERIOD   2
  ---------------------------------------------------------------------------------------------------

     CUMULATIVE MASS      M       RATES FOR THIS TIME STEP      M/T          PACKAGE NAME    
     ------------------                 ------------------------                     ----------------

           IN:                                      IN:
           ---                                      ---
     STORAGE-AQUEOUS =       2.5566E-05       STORAGE-AQUEOUS =       3.9764E-15     MST                              
                 WEL =           0.0000                   WEL =           0.0000     SSM_WEL1                         
                 WEL =           0.2140                   WEL =       5.0000E-04     SSM_WEL2                         

            TOTAL IN =           0.2140              TOTAL IN =       5.0000E-04

          OUT:                                     OUT:
          ----                                     ----
     STORAGE-AQUEOUS =       9.9778E-02       STORAGE-AQUEOUS =       1.5414E-04     MST                              
                 WEL =           0.1142                   WEL =       3.4586E-04     SSM_WEL1                         
                 WEL =           0.0000                   WEL =           0.0000     SSM_WEL2                         

           TOTAL OUT =           0.2140             TOTAL OUT =       5.0001E-04

            IN - OUT =      -2.2455E-06              IN - OUT =      -5.2133E-09

 PERCENT DISCREPANCY =          -0.00     PERCENT DISCREPANCY =          -0.00




         TIME SUMMARY AT END OF TIME STEP  114 IN STRESS PERIOD    2
                    SECONDS     MINUTES      HOURS       DAYS        YEARS
                    -----------------------------------------------------------
   TIME STEP LENGTH 1.72800E+05  2880.0      48.000      2.0000     5.47570E-03
 STRESS PERIOD TIME 1.96992E+07 3.28320E+05  5472.0      228.00     0.62423    
         TOTAL TIME 3.69792E+07 6.16320E+05  10272.      428.00      1.1718    


end timestep


start timestep kper="2" kstp="115" mode="normal"

 UBDSV1 SAVING     FLOW-JA-FACE ON UNIT   1030 AT TIME STEP    115, STRESS PERIOD      2
 UBDSV1 SAVING  STORAGE-AQUEOUS ON UNIT   1030 AT TIME STEP    115, STRESS PERIOD      2
 UBDSV06 SAVING  SOURCE-SINK MIX IN MODEL SVA_TM_T         PACKAGE SVA_TM_T        CONNECTED TO MODEL SVA_TM_T         PACKAGE SSM              ON UNIT   1030 AT TIME STEP    115, STRESS PERIOD      2

 CONCENTRATION WILL BE SAVED ON UNIT 1031 AT END OF TIME STEP  115, STRESS PERIOD    2


  MASS BUDGET FOR ENTIRE MODEL AT END OF TIME STEP  115, STRESS PERIOD   2
  ---------------------------------------------------------------------------------------------------

     CUMULATIVE MASS      M       RATES FOR THIS TIME STEP      M/T          PACKAGE NAME    
     ------------------                 ------------------------                     ----------------

           IN:                                      IN:
           ---                                      ---
     STORAGE-AQUEOUS =       2.5566E-05       STORAGE-AQUEOUS =       3.7305E-15     MST                              
                 WEL =           0.0000                   WEL =           0.0000     SSM_WEL1                         
                 WEL =           0.2150                   WEL =       5.0000E-04     SSM_WEL2                         

            TOTAL IN =           0.2150              TOTAL IN =       5.0000E-04

          OUT:                                     OUT:
          ----                                     ----
     STORAGE-AQUEOUS =           0.1001       STORAGE-AQUEOUS =       1.5336E-04     MST                              
                 WEL =           0.1149                   WEL =       3.4665E-04     SSM_WEL1                         
                 WEL =           0.0000                   WEL =           0.0000     SSM_WEL2                         

           TOTAL OUT =           0.2150             TOTAL OUT =       5.0001E-04

            IN - OUT =      -2.2561E-06              IN - OUT =      -5.3003E-09

 PERCENT DISCREPANCY =          -0.00     PERCENT DISCREPANCY =          -0.00




         TIME SUMMARY AT END OF TIME STEP  115 IN STRESS PERIOD    2
                    SECONDS     MINUTES      HOURS       DAYS        YEARS
                    -----------------------------------------------------------
   TIME STEP LENGTH 1.72800E+05  2880.0      48.000      2.0000     5.47570E-03
 STRESS PERIOD TIME 1.98720E+07 3.31200E+05  5520.0      230.00     0.62971    
         TOTAL TIME 3.71520E+07 6.19200E+05  10320.      430.00      1.1773    


end timestep


start timestep kper="2" kstp="116" mode="normal"

 UBDSV1 SAVING     FLOW-JA-FACE ON UNIT   1030 AT TIME STEP    116, STRESS PERIOD      2
 UBDSV1 SAVING  STORAGE-AQUEOUS ON UNIT   1030 AT TIME STEP    116, STRESS PERIOD      2
 UBDSV06 SAVING  SOURCE-SINK MIX IN MODEL SVA_TM_T         PACKAGE SVA_TM_T        CONNECTED TO MODEL SVA_TM_T         PACKAGE SSM              ON UNIT   1030 AT TIME STEP    116, STRESS PERIOD      2

 CONCENTRATION WILL BE SAVED ON UNIT 1031 AT END OF TIME STEP  116, STRESS PERIOD    2


  MASS BUDGET FOR ENTIRE MODEL AT END OF TIME STEP  116, STRESS PERIOD   2
  ---------------------------------------------------------------------------------------------------

     CUMULATIVE MASS      M       RATES FOR THIS TIME STEP      M/T          PACKAGE NAME    
     ------------------                 ------------------------                     ----------------

           IN:                                      IN:
           ---                                      ---
     STORAGE-AQUEOUS =       2.5566E-05       STORAGE-AQUEOUS =       3.5367E-15     MST                              
                 WEL =           0.0000                   WEL =           0.0000     SSM_WEL1                         
                 WEL =           0.2160                   WEL =       5.0000E-04     SSM_WEL2                         

            TOTAL IN =           0.2160              TOTAL IN =       5.0000E-04

          OUT:                                     OUT:
          ----                                     ----
     STORAGE-AQUEOUS =           0.1004       STORAGE-AQUEOUS =       1.5258E-04     MST                              
                 WEL =           0.1156                   WEL =       3.4742E-04     SSM_WEL1                         
                 WEL =           0.0000                   WEL =           0.0000     SSM_WEL2                         

           TOTAL OUT =           0.2160             TOTAL OUT =       5.0001E-04

            IN - OUT =      -2.2682E-06              IN - OUT =      -6.0828E-09

 PERCENT DISCREPANCY =          -0.00     PERCENT DISCREPANCY =          -0.00




         TIME SUMMARY AT END OF TIME STEP  116 IN STRESS PERIOD    2
                    SECONDS     MINUTES      HOURS       DAYS        YEARS
                    -----------------------------------------------------------
   TIME STEP LENGTH 1.72800E+05  2880.0      48.000      2.0000     5.47570E-03
 STRESS PERIOD TIME 2.00448E+07 3.34080E+05  5568.0      232.00     0.63518    
         TOTAL TIME 3.73248E+07 6.22080E+05  10368.      432.00      1.1828    


end timestep


start timestep kper="2" kstp="117" mode="normal"

 UBDSV1 SAVING     FLOW-JA-FACE ON UNIT   1030 AT TIME STEP    117, STRESS PERIOD      2
 UBDSV1 SAVING  STORAGE-AQUEOUS ON UNIT   1030 AT TIME STEP    117, STRESS PERIOD      2
 UBDSV06 SAVING  SOURCE-SINK MIX IN MODEL SVA_TM_T         PACKAGE SVA_TM_T        CONNECTED TO MODEL SVA_TM_T         PACKAGE SSM              ON UNIT   1030 AT TIME STEP    117, STRESS PERIOD      2

 CONCENTRATION WILL BE SAVED ON UNIT 1031 AT END OF TIME STEP  117, STRESS PERIOD    2


  MASS BUDGET FOR ENTIRE MODEL AT END OF TIME STEP  117, STRESS PERIOD   2
  ---------------------------------------------------------------------------------------------------

     CUMULATIVE MASS      M       RATES FOR THIS TIME STEP      M/T          PACKAGE NAME    
     ------------------                 ------------------------                     ----------------

           IN:                                      IN:
           ---                                      ---
     STORAGE-AQUEOUS =       2.5566E-05       STORAGE-AQUEOUS =       3.4163E-15     MST                              
                 WEL =           0.0000                   WEL =           0.0000     SSM_WEL1                         
                 WEL =           0.2170                   WEL =       5.0000E-04     SSM_WEL2                         

            TOTAL IN =           0.2170              TOTAL IN =       5.0000E-04

          OUT:                                     OUT:
          ----                                     ----
     STORAGE-AQUEOUS =           0.1007       STORAGE-AQUEOUS =       1.5181E-04     MST                              
                 WEL =           0.1163                   WEL =       3.4820E-04     SSM_WEL1                         
                 WEL =           0.0000                   WEL =           0.0000     SSM_WEL2                         

           TOTAL OUT =           0.2170             TOTAL OUT =       5.0001E-04

            IN - OUT =      -2.2803E-06              IN - OUT =      -6.0558E-09

 PERCENT DISCREPANCY =          -0.00     PERCENT DISCREPANCY =          -0.00




         TIME SUMMARY AT END OF TIME STEP  117 IN STRESS PERIOD    2
                    SECONDS     MINUTES      HOURS       DAYS        YEARS
                    -----------------------------------------------------------
   TIME STEP LENGTH 1.72800E+05  2880.0      48.000      2.0000     5.47570E-03
 STRESS PERIOD TIME 2.02176E+07 3.36960E+05  5616.0      234.00     0.64066    
         TOTAL TIME 3.74976E+07 6.24960E+05  10416.      434.00      1.1882    


end timestep


start timestep kper="2" kstp="118" mode="normal"

 UBDSV1 SAVING     FLOW-JA-FACE ON UNIT   1030 AT TIME STEP    118, STRESS PERIOD      2
 UBDSV1 SAVING  STORAGE-AQUEOUS ON UNIT   1030 AT TIME STEP    118, STRESS PERIOD      2
 UBDSV06 SAVING  SOURCE-SINK MIX IN MODEL SVA_TM_T         PACKAGE SVA_TM_T        CONNECTED TO MODEL SVA_TM_T         PACKAGE SSM              ON UNIT   1030 AT TIME STEP    118, STRESS PERIOD      2

 CONCENTRATION WILL BE SAVED ON UNIT 1031 AT END OF TIME STEP  118, STRESS PERIOD    2


  MASS BUDGET FOR ENTIRE MODEL AT END OF TIME STEP  118, STRESS PERIOD   2
  ---------------------------------------------------------------------------------------------------

     CUMULATIVE MASS      M       RATES FOR THIS TIME STEP      M/T          PACKAGE NAME    
     ------------------                 ------------------------                     ----------------

           IN:                                      IN:
           ---                                      ---
     STORAGE-AQUEOUS =       2.5566E-05       STORAGE-AQUEOUS =       3.2975E-15     MST                              
                 WEL =           0.0000                   WEL =           0.0000     SSM_WEL1                         
                 WEL =           0.2180                   WEL =       5.0000E-04     SSM_WEL2                         

            TOTAL IN =           0.2180              TOTAL IN =       5.0000E-04

          OUT:                                     OUT:
          ----                                     ----
     STORAGE-AQUEOUS =           0.1010       STORAGE-AQUEOUS =       1.5103E-04     MST                              
                 WEL =           0.1170                   WEL =       3.4897E-04     SSM_WEL1                         
                 WEL =           0.0000                   WEL =           0.0000     SSM_WEL2                         

           TOTAL OUT =           0.2180             TOTAL OUT =       5.0001E-04

            IN - OUT =      -2.2920E-06              IN - OUT =      -5.8484E-09

 PERCENT DISCREPANCY =          -0.00     PERCENT DISCREPANCY =          -0.00




         TIME SUMMARY AT END OF TIME STEP  118 IN STRESS PERIOD    2
                    SECONDS     MINUTES      HOURS       DAYS        YEARS
                    -----------------------------------------------------------
   TIME STEP LENGTH 1.72800E+05  2880.0      48.000      2.0000     5.47570E-03
 STRESS PERIOD TIME 2.03904E+07 3.39840E+05  5664.0      236.00     0.64613    
         TOTAL TIME 3.76704E+07 6.27840E+05  10464.      436.00      1.1937    


end timestep


start timestep kper="2" kstp="119" mode="normal"

 UBDSV1 SAVING     FLOW-JA-FACE ON UNIT   1030 AT TIME STEP    119, STRESS PERIOD      2
 UBDSV1 SAVING  STORAGE-AQUEOUS ON UNIT   1030 AT TIME STEP    119, STRESS PERIOD      2
 UBDSV06 SAVING  SOURCE-SINK MIX IN MODEL SVA_TM_T         PACKAGE SVA_TM_T        CONNECTED TO MODEL SVA_TM_T         PACKAGE SSM              ON UNIT   1030 AT TIME STEP    119, STRESS PERIOD      2

 CONCENTRATION WILL BE SAVED ON UNIT 1031 AT END OF TIME STEP  119, STRESS PERIOD    2


  MASS BUDGET FOR ENTIRE MODEL AT END OF TIME STEP  119, STRESS PERIOD   2
  ---------------------------------------------------------------------------------------------------

     CUMULATIVE MASS      M       RATES FOR THIS TIME STEP      M/T          PACKAGE NAME    
     ------------------                 ------------------------                     ----------------

           IN:                                      IN:
           ---                                      ---
     STORAGE-AQUEOUS =       2.5566E-05       STORAGE-AQUEOUS =       3.1942E-15     MST                              
                 WEL =           0.0000                   WEL =           0.0000     SSM_WEL1                         
                 WEL =           0.2190                   WEL =       5.0000E-04     SSM_WEL2                         

            TOTAL IN =           0.2190              TOTAL IN =       5.0000E-04

          OUT:                                     OUT:
          ----                                     ----
     STORAGE-AQUEOUS =           0.1013       STORAGE-AQUEOUS =       1.5026E-04     MST                              
                 WEL =           0.1177                   WEL =       3.4974E-04     SSM_WEL1                         
                 WEL =           0.0000                   WEL =           0.0000     SSM_WEL2                         

           TOTAL OUT =           0.2190             TOTAL OUT =       5.0001E-04

            IN - OUT =      -2.3033E-06              IN - OUT =      -5.6518E-09

 PERCENT DISCREPANCY =          -0.00     PERCENT DISCREPANCY =          -0.00




         TIME SUMMARY AT END OF TIME STEP  119 IN STRESS PERIOD    2
                    SECONDS     MINUTES      HOURS       DAYS        YEARS
                    -----------------------------------------------------------
   TIME STEP LENGTH 1.72800E+05  2880.0      48.000      2.0000     5.47570E-03
 STRESS PERIOD TIME 2.05632E+07 3.42720E+05  5712.0      238.00     0.65161    
         TOTAL TIME 3.78432E+07 6.30720E+05  10512.      438.00      1.1992    


end timestep


start timestep kper="2" kstp="120" mode="normal"

 UBDSV1 SAVING     FLOW-JA-FACE ON UNIT   1030 AT TIME STEP    120, STRESS PERIOD      2
 UBDSV1 SAVING  STORAGE-AQUEOUS ON UNIT   1030 AT TIME STEP    120, STRESS PERIOD      2
 UBDSV06 SAVING  SOURCE-SINK MIX IN MODEL SVA_TM_T         PACKAGE SVA_TM_T        CONNECTED TO MODEL SVA_TM_T         PACKAGE SSM              ON UNIT   1030 AT TIME STEP    120, STRESS PERIOD      2

 CONCENTRATION WILL BE SAVED ON UNIT 1031 AT END OF TIME STEP  120, STRESS PERIOD    2


  MASS BUDGET FOR ENTIRE MODEL AT END OF TIME STEP  120, STRESS PERIOD   2
  ---------------------------------------------------------------------------------------------------

     CUMULATIVE MASS      M       RATES FOR THIS TIME STEP      M/T          PACKAGE NAME    
     ------------------                 ------------------------                     ----------------

           IN:                                      IN:
           ---                                      ---
     STORAGE-AQUEOUS =       2.5566E-05       STORAGE-AQUEOUS =       3.0885E-15     MST                              
                 WEL =           0.0000                   WEL =           0.0000     SSM_WEL1                         
                 WEL =           0.2200                   WEL =       5.0000E-04     SSM_WEL2                         

            TOTAL IN =           0.2200              TOTAL IN =       5.0000E-04

          OUT:                                     OUT:
          ----                                     ----
     STORAGE-AQUEOUS =           0.1016       STORAGE-AQUEOUS =       1.4949E-04     MST                              
                 WEL =           0.1184                   WEL =       3.5051E-04     SSM_WEL1                         
                 WEL =           0.0000                   WEL =           0.0000     SSM_WEL2                         

           TOTAL OUT =           0.2200             TOTAL OUT =       5.0001E-04

            IN - OUT =      -2.3154E-06              IN - OUT =      -6.0279E-09

 PERCENT DISCREPANCY =          -0.00     PERCENT DISCREPANCY =          -0.00




         TIME SUMMARY AT END OF TIME STEP  120 IN STRESS PERIOD    2
                    SECONDS     MINUTES      HOURS       DAYS        YEARS
                    -----------------------------------------------------------
   TIME STEP LENGTH 1.72800E+05  2880.0      48.000      2.0000     5.47570E-03
 STRESS PERIOD TIME 2.07360E+07 3.45600E+05  5760.0      240.00     0.65708    
         TOTAL TIME 3.80160E+07 6.33600E+05  10560.      440.00      1.2047    


end timestep


start timestep kper="2" kstp="121" mode="normal"

 UBDSV1 SAVING     FLOW-JA-FACE ON UNIT   1030 AT TIME STEP    121, STRESS PERIOD      2
 UBDSV1 SAVING  STORAGE-AQUEOUS ON UNIT   1030 AT TIME STEP    121, STRESS PERIOD      2
 UBDSV06 SAVING  SOURCE-SINK MIX IN MODEL SVA_TM_T         PACKAGE SVA_TM_T        CONNECTED TO MODEL SVA_TM_T         PACKAGE SSM              ON UNIT   1030 AT TIME STEP    121, STRESS PERIOD      2

 CONCENTRATION WILL BE SAVED ON UNIT 1031 AT END OF TIME STEP  121, STRESS PERIOD    2


  MASS BUDGET FOR ENTIRE MODEL AT END OF TIME STEP  121, STRESS PERIOD   2
  ---------------------------------------------------------------------------------------------------

     CUMULATIVE MASS      M       RATES FOR THIS TIME STEP      M/T          PACKAGE NAME    
     ------------------                 ------------------------                     ----------------

           IN:                                      IN:
           ---                                      ---
     STORAGE-AQUEOUS =       2.5566E-05       STORAGE-AQUEOUS =       3.0321E-15     MST                              
                 WEL =           0.0000                   WEL =           0.0000     SSM_WEL1                         
                 WEL =           0.2210                   WEL =       5.0000E-04     SSM_WEL2                         

            TOTAL IN =           0.2210              TOTAL IN =       5.0000E-04

          OUT:                                     OUT:
          ----                                     ----
     STORAGE-AQUEOUS =           0.1019       STORAGE-AQUEOUS =       1.4872E-04     MST                              
                 WEL =           0.1191                   WEL =       3.5129E-04     SSM_WEL1                         
                 WEL =           0.0000                   WEL =           0.0000     SSM_WEL2                         

           TOTAL OUT =           0.2210             TOTAL OUT =       5.0001E-04

            IN - OUT =      -2.3275E-06              IN - OUT =      -6.0389E-09

 PERCENT DISCREPANCY =          -0.00     PERCENT DISCREPANCY =          -0.00




         TIME SUMMARY AT END OF TIME STEP  121 IN STRESS PERIOD    2
                    SECONDS     MINUTES      HOURS       DAYS        YEARS
                    -----------------------------------------------------------
   TIME STEP LENGTH 1.72800E+05  2880.0      48.000      2.0000     5.47570E-03
 STRESS PERIOD TIME 2.09088E+07 3.48480E+05  5808.0      242.00     0.66256    
         TOTAL TIME 3.81888E+07 6.36480E+05  10608.      442.00      1.2101    


end timestep


start timestep kper="2" kstp="122" mode="normal"

 UBDSV1 SAVING     FLOW-JA-FACE ON UNIT   1030 AT TIME STEP    122, STRESS PERIOD      2
 UBDSV1 SAVING  STORAGE-AQUEOUS ON UNIT   1030 AT TIME STEP    122, STRESS PERIOD      2
 UBDSV06 SAVING  SOURCE-SINK MIX IN MODEL SVA_TM_T         PACKAGE SVA_TM_T        CONNECTED TO MODEL SVA_TM_T         PACKAGE SSM              ON UNIT   1030 AT TIME STEP    122, STRESS PERIOD      2

 CONCENTRATION WILL BE SAVED ON UNIT 1031 AT END OF TIME STEP  122, STRESS PERIOD    2


  MASS BUDGET FOR ENTIRE MODEL AT END OF TIME STEP  122, STRESS PERIOD   2
  ---------------------------------------------------------------------------------------------------

     CUMULATIVE MASS      M       RATES FOR THIS TIME STEP      M/T          PACKAGE NAME    
     ------------------                 ------------------------                     ----------------

           IN:                                      IN:
           ---                                      ---
     STORAGE-AQUEOUS =       2.5566E-05       STORAGE-AQUEOUS =       2.9625E-15     MST                              
                 WEL =           0.0000                   WEL =           0.0000     SSM_WEL1                         
                 WEL =           0.2220                   WEL =       5.0000E-04     SSM_WEL2                         

            TOTAL IN =           0.2220              TOTAL IN =       5.0000E-04

          OUT:                                     OUT:
          ----                                     ----
     STORAGE-AQUEOUS =           0.1022       STORAGE-AQUEOUS =       1.4795E-04     MST                              
                 WEL =           0.1198                   WEL =       3.5205E-04     SSM_WEL1                         
                 WEL =           0.0000                   WEL =           0.0000     SSM_WEL2                         

           TOTAL OUT =           0.2220             TOTAL OUT =       5.0001E-04

            IN - OUT =      -2.3411E-06              IN - OUT =      -6.8231E-09

 PERCENT DISCREPANCY =          -0.00     PERCENT DISCREPANCY =          -0.00




         TIME SUMMARY AT END OF TIME STEP  122 IN STRESS PERIOD    2
                    SECONDS     MINUTES      HOURS       DAYS        YEARS
                    -----------------------------------------------------------
   TIME STEP LENGTH 1.72800E+05  2880.0      48.000      2.0000     5.47570E-03
 STRESS PERIOD TIME 2.10816E+07 3.51360E+05  5856.0      244.00     0.66804    
         TOTAL TIME 3.83616E+07 6.39360E+05  10656.      444.00      1.2156    


end timestep


start timestep kper="2" kstp="123" mode="normal"

 UBDSV1 SAVING     FLOW-JA-FACE ON UNIT   1030 AT TIME STEP    123, STRESS PERIOD      2
 UBDSV1 SAVING  STORAGE-AQUEOUS ON UNIT   1030 AT TIME STEP    123, STRESS PERIOD      2
 UBDSV06 SAVING  SOURCE-SINK MIX IN MODEL SVA_TM_T         PACKAGE SVA_TM_T        CONNECTED TO MODEL SVA_TM_T         PACKAGE SSM              ON UNIT   1030 AT TIME STEP    123, STRESS PERIOD      2

 CONCENTRATION WILL BE SAVED ON UNIT 1031 AT END OF TIME STEP  123, STRESS PERIOD    2


  MASS BUDGET FOR ENTIRE MODEL AT END OF TIME STEP  123, STRESS PERIOD   2
  ---------------------------------------------------------------------------------------------------

     CUMULATIVE MASS      M       RATES FOR THIS TIME STEP      M/T          PACKAGE NAME    
     ------------------                 ------------------------                     ----------------

           IN:                                      IN:
           ---                                      ---
     STORAGE-AQUEOUS =       2.5566E-05       STORAGE-AQUEOUS =       2.9076E-15     MST                              
                 WEL =           0.0000                   WEL =           0.0000     SSM_WEL1                         
                 WEL =           0.2230                   WEL =       5.0000E-04     SSM_WEL2                         

            TOTAL IN =           0.2230              TOTAL IN =       5.0000E-04

          OUT:                                     OUT:
          ----                                     ----
     STORAGE-AQUEOUS =           0.1025       STORAGE-AQUEOUS =       1.4718E-04     MST                              
                 WEL =           0.1205                   WEL =       3.5282E-04     SSM_WEL1                         
                 WEL =           0.0000                   WEL =           0.0000     SSM_WEL2                         

           TOTAL OUT =           0.2230             TOTAL OUT =       5.0001E-04

            IN - OUT =      -2.3540E-06              IN - OUT =      -6.4674E-09

 PERCENT DISCREPANCY =          -0.00     PERCENT DISCREPANCY =          -0.00




         TIME SUMMARY AT END OF TIME STEP  123 IN STRESS PERIOD    2
                    SECONDS     MINUTES      HOURS       DAYS        YEARS
                    -----------------------------------------------------------
   TIME STEP LENGTH 1.72800E+05  2880.0      48.000      2.0000     5.47570E-03
 STRESS PERIOD TIME 2.12544E+07 3.54240E+05  5904.0      246.00     0.67351    
         TOTAL TIME 3.85344E+07 6.42240E+05  10704.      446.00      1.2211    


end timestep


start timestep kper="2" kstp="124" mode="normal"

 UBDSV1 SAVING     FLOW-JA-FACE ON UNIT   1030 AT TIME STEP    124, STRESS PERIOD      2
 UBDSV1 SAVING  STORAGE-AQUEOUS ON UNIT   1030 AT TIME STEP    124, STRESS PERIOD      2
 UBDSV06 SAVING  SOURCE-SINK MIX IN MODEL SVA_TM_T         PACKAGE SVA_TM_T        CONNECTED TO MODEL SVA_TM_T         PACKAGE SSM              ON UNIT   1030 AT TIME STEP    124, STRESS PERIOD      2

 CONCENTRATION WILL BE SAVED ON UNIT 1031 AT END OF TIME STEP  124, STRESS PERIOD    2


  MASS BUDGET FOR ENTIRE MODEL AT END OF TIME STEP  124, STRESS PERIOD   2
  ---------------------------------------------------------------------------------------------------

     CUMULATIVE MASS      M       RATES FOR THIS TIME STEP      M/T          PACKAGE NAME    
     ------------------                 ------------------------                     ----------------

           IN:                                      IN:
           ---                                      ---
     STORAGE-AQUEOUS =       2.5566E-05       STORAGE-AQUEOUS =       2.8566E-15     MST                              
                 WEL =           0.0000                   WEL =           0.0000     SSM_WEL1                         
                 WEL =           0.2240                   WEL =       5.0000E-04     SSM_WEL2                         

            TOTAL IN =           0.2240              TOTAL IN =       5.0000E-04

          OUT:                                     OUT:
          ----                                     ----
     STORAGE-AQUEOUS =           0.1028       STORAGE-AQUEOUS =       1.4642E-04     MST                              
                 WEL =           0.1213                   WEL =       3.5359E-04     SSM_WEL1                         
                 WEL =           0.0000                   WEL =           0.0000     SSM_WEL2                         

           TOTAL OUT =           0.2240             TOTAL OUT =       5.0001E-04

            IN - OUT =      -2.3659E-06              IN - OUT =      -5.9496E-09

 PERCENT DISCREPANCY =          -0.00     PERCENT DISCREPANCY =          -0.00




         TIME SUMMARY AT END OF TIME STEP  124 IN STRESS PERIOD    2
                    SECONDS     MINUTES      HOURS       DAYS        YEARS
                    -----------------------------------------------------------
   TIME STEP LENGTH 1.72800E+05  2880.0      48.000      2.0000     5.47570E-03
 STRESS PERIOD TIME 2.14272E+07 3.57120E+05  5952.0      248.00     0.67899    
         TOTAL TIME 3.87072E+07 6.45120E+05  10752.      448.00      1.2266    


end timestep


start timestep kper="2" kstp="125" mode="normal"

 UBDSV1 SAVING     FLOW-JA-FACE ON UNIT   1030 AT TIME STEP    125, STRESS PERIOD      2
 UBDSV1 SAVING  STORAGE-AQUEOUS ON UNIT   1030 AT TIME STEP    125, STRESS PERIOD      2
 UBDSV06 SAVING  SOURCE-SINK MIX IN MODEL SVA_TM_T         PACKAGE SVA_TM_T        CONNECTED TO MODEL SVA_TM_T         PACKAGE SSM              ON UNIT   1030 AT TIME STEP    125, STRESS PERIOD      2

 CONCENTRATION WILL BE SAVED ON UNIT 1031 AT END OF TIME STEP  125, STRESS PERIOD    2


  MASS BUDGET FOR ENTIRE MODEL AT END OF TIME STEP  125, STRESS PERIOD   2
  ---------------------------------------------------------------------------------------------------

     CUMULATIVE MASS      M       RATES FOR THIS TIME STEP      M/T          PACKAGE NAME    
     ------------------                 ------------------------                     ----------------

           IN:                                      IN:
           ---                                      ---
     STORAGE-AQUEOUS =       2.5566E-05       STORAGE-AQUEOUS =       2.8176E-15     MST                              
                 WEL =           0.0000                   WEL =           0.0000     SSM_WEL1                         
                 WEL =           0.2250                   WEL =       5.0000E-04     SSM_WEL2                         

            TOTAL IN =           0.2250              TOTAL IN =       5.0000E-04

          OUT:                                     OUT:
          ----                                     ----
     STORAGE-AQUEOUS =           0.1031       STORAGE-AQUEOUS =       1.4565E-04     MST                              
                 WEL =           0.1220                   WEL =       3.5436E-04     SSM_WEL1                         
                 WEL =           0.0000                   WEL =           0.0000     SSM_WEL2                         

           TOTAL OUT =           0.2250             TOTAL OUT =       5.0001E-04

            IN - OUT =      -2.3770E-06              IN - OUT =      -5.5053E-09

 PERCENT DISCREPANCY =          -0.00     PERCENT DISCREPANCY =          -0.00




         TIME SUMMARY AT END OF TIME STEP  125 IN STRESS PERIOD    2
                    SECONDS     MINUTES      HOURS       DAYS        YEARS
                    -----------------------------------------------------------
   TIME STEP LENGTH 1.72800E+05  2880.0      48.000      2.0000     5.47570E-03
 STRESS PERIOD TIME 2.16000E+07 3.60000E+05  6000.0      250.00     0.68446    
         TOTAL TIME 3.88800E+07 6.48000E+05  10800.      450.00      1.2320    


end timestep


start timestep kper="2" kstp="126" mode="normal"

 UBDSV1 SAVING     FLOW-JA-FACE ON UNIT   1030 AT TIME STEP    126, STRESS PERIOD      2
 UBDSV1 SAVING  STORAGE-AQUEOUS ON UNIT   1030 AT TIME STEP    126, STRESS PERIOD      2
 UBDSV06 SAVING  SOURCE-SINK MIX IN MODEL SVA_TM_T         PACKAGE SVA_TM_T        CONNECTED TO MODEL SVA_TM_T         PACKAGE SSM              ON UNIT   1030 AT TIME STEP    126, STRESS PERIOD      2

 CONCENTRATION WILL BE SAVED ON UNIT 1031 AT END OF TIME STEP  126, STRESS PERIOD    2


  MASS BUDGET FOR ENTIRE MODEL AT END OF TIME STEP  126, STRESS PERIOD   2
  ---------------------------------------------------------------------------------------------------

     CUMULATIVE MASS      M       RATES FOR THIS TIME STEP      M/T          PACKAGE NAME    
     ------------------                 ------------------------                     ----------------

           IN:                                      IN:
           ---                                      ---
     STORAGE-AQUEOUS =       2.5566E-05       STORAGE-AQUEOUS =       2.8017E-15     MST                              
                 WEL =           0.0000                   WEL =           0.0000     SSM_WEL1                         
                 WEL =           0.2260                   WEL =       5.0000E-04     SSM_WEL2                         

            TOTAL IN =           0.2260              TOTAL IN =       5.0000E-04

          OUT:                                     OUT:
          ----                                     ----
     STORAGE-AQUEOUS =           0.1034       STORAGE-AQUEOUS =       1.4489E-04     MST                              
                 WEL =           0.1227                   WEL =       3.5512E-04     SSM_WEL1                         
                 WEL =           0.0000                   WEL =           0.0000     SSM_WEL2                         

           TOTAL OUT =           0.2260             TOTAL OUT =       5.0001E-04

            IN - OUT =      -2.3873E-06              IN - OUT =      -5.1790E-09

 PERCENT DISCREPANCY =          -0.00     PERCENT DISCREPANCY =          -0.00




         TIME SUMMARY AT END OF TIME STEP  126 IN STRESS PERIOD    2
                    SECONDS     MINUTES      HOURS       DAYS        YEARS
                    -----------------------------------------------------------
   TIME STEP LENGTH 1.72800E+05  2880.0      48.000      2.0000     5.47570E-03
 STRESS PERIOD TIME 2.17728E+07 3.62880E+05  6048.0      252.00     0.68994    
         TOTAL TIME 3.90528E+07 6.50880E+05  10848.      452.00      1.2375    


end timestep


start timestep kper="2" kstp="127" mode="normal"

 UBDSV1 SAVING     FLOW-JA-FACE ON UNIT   1030 AT TIME STEP    127, STRESS PERIOD      2
 UBDSV1 SAVING  STORAGE-AQUEOUS ON UNIT   1030 AT TIME STEP    127, STRESS PERIOD      2
 UBDSV06 SAVING  SOURCE-SINK MIX IN MODEL SVA_TM_T         PACKAGE SVA_TM_T        CONNECTED TO MODEL SVA_TM_T         PACKAGE SSM              ON UNIT   1030 AT TIME STEP    127, STRESS PERIOD      2

 CONCENTRATION WILL BE SAVED ON UNIT 1031 AT END OF TIME STEP  127, STRESS PERIOD    2


  MASS BUDGET FOR ENTIRE MODEL AT END OF TIME STEP  127, STRESS PERIOD   2
  ---------------------------------------------------------------------------------------------------

     CUMULATIVE MASS      M       RATES FOR THIS TIME STEP      M/T          PACKAGE NAME    
     ------------------                 ------------------------                     ----------------

           IN:                                      IN:
           ---                                      ---
     STORAGE-AQUEOUS =       2.5566E-05       STORAGE-AQUEOUS =       2.7809E-15     MST                              
                 WEL =           0.0000                   WEL =           0.0000     SSM_WEL1                         
                 WEL =           0.2270                   WEL =       5.0000E-04     SSM_WEL2                         

            TOTAL IN =           0.2270              TOTAL IN =       5.0000E-04

          OUT:                                     OUT:
          ----                                     ----
     STORAGE-AQUEOUS =           0.1036       STORAGE-AQUEOUS =       1.4412E-04     MST                              
                 WEL =           0.1234                   WEL =       3.5588E-04     SSM_WEL1                         
                 WEL =           0.0000                   WEL =           0.0000     SSM_WEL2                         

           TOTAL OUT =           0.2270             TOTAL OUT =       5.0000E-04

            IN - OUT =      -2.3970E-06              IN - OUT =      -4.8553E-09

 PERCENT DISCREPANCY =          -0.00     PERCENT DISCREPANCY =          -0.00




         TIME SUMMARY AT END OF TIME STEP  127 IN STRESS PERIOD    2
                    SECONDS     MINUTES      HOURS       DAYS        YEARS
                    -----------------------------------------------------------
   TIME STEP LENGTH 1.72800E+05  2880.0      48.000      2.0000     5.47570E-03
 STRESS PERIOD TIME 2.19456E+07 3.65760E+05  6096.0      254.00     0.69541    
         TOTAL TIME 3.92256E+07 6.53760E+05  10896.      454.00      1.2430    


end timestep


start timestep kper="2" kstp="128" mode="normal"

 UBDSV1 SAVING     FLOW-JA-FACE ON UNIT   1030 AT TIME STEP    128, STRESS PERIOD      2
 UBDSV1 SAVING  STORAGE-AQUEOUS ON UNIT   1030 AT TIME STEP    128, STRESS PERIOD      2
 UBDSV06 SAVING  SOURCE-SINK MIX IN MODEL SVA_TM_T         PACKAGE SVA_TM_T        CONNECTED TO MODEL SVA_TM_T         PACKAGE SSM              ON UNIT   1030 AT TIME STEP    128, STRESS PERIOD      2

 CONCENTRATION WILL BE SAVED ON UNIT 1031 AT END OF TIME STEP  128, STRESS PERIOD    2


  MASS BUDGET FOR ENTIRE MODEL AT END OF TIME STEP  128, STRESS PERIOD   2
  ---------------------------------------------------------------------------------------------------

     CUMULATIVE MASS      M       RATES FOR THIS TIME STEP      M/T          PACKAGE NAME    
     ------------------                 ------------------------                     ----------------

           IN:                                      IN:
           ---                                      ---
     STORAGE-AQUEOUS =       2.5566E-05       STORAGE-AQUEOUS =       5.2059E-15     MST                              
                 WEL =           0.0000                   WEL =           0.0000     SSM_WEL1                         
                 WEL =           0.2280                   WEL =       5.0000E-04     SSM_WEL2                         

            TOTAL IN =           0.2280              TOTAL IN =       5.0000E-04

          OUT:                                     OUT:
          ----                                     ----
     STORAGE-AQUEOUS =           0.1039       STORAGE-AQUEOUS =       1.4336E-04     MST                              
                 WEL =           0.1241                   WEL =       3.5664E-04     SSM_WEL1                         
                 WEL =           0.0000                   WEL =           0.0000     SSM_WEL2                         

           TOTAL OUT =           0.2280             TOTAL OUT =       5.0000E-04

            IN - OUT =      -2.4064E-06              IN - OUT =      -4.7066E-09

 PERCENT DISCREPANCY =          -0.00     PERCENT DISCREPANCY =          -0.00




         TIME SUMMARY AT END OF TIME STEP  128 IN STRESS PERIOD    2
                    SECONDS     MINUTES      HOURS       DAYS        YEARS
                    -----------------------------------------------------------
   TIME STEP LENGTH 1.72800E+05  2880.0      48.000      2.0000     5.47570E-03
 STRESS PERIOD TIME 2.21184E+07 3.68640E+05  6144.0      256.00     0.70089    
         TOTAL TIME 3.93984E+07 6.56640E+05  10944.      456.00      1.2485    


end timestep


start timestep kper="2" kstp="129" mode="normal"

 UBDSV1 SAVING     FLOW-JA-FACE ON UNIT   1030 AT TIME STEP    129, STRESS PERIOD      2
 UBDSV1 SAVING  STORAGE-AQUEOUS ON UNIT   1030 AT TIME STEP    129, STRESS PERIOD      2
 UBDSV06 SAVING  SOURCE-SINK MIX IN MODEL SVA_TM_T         PACKAGE SVA_TM_T        CONNECTED TO MODEL SVA_TM_T         PACKAGE SSM              ON UNIT   1030 AT TIME STEP    129, STRESS PERIOD      2

 CONCENTRATION WILL BE SAVED ON UNIT 1031 AT END OF TIME STEP  129, STRESS PERIOD    2


  MASS BUDGET FOR ENTIRE MODEL AT END OF TIME STEP  129, STRESS PERIOD   2
  ---------------------------------------------------------------------------------------------------

     CUMULATIVE MASS      M       RATES FOR THIS TIME STEP      M/T          PACKAGE NAME    
     ------------------                 ------------------------                     ----------------

           IN:                                      IN:
           ---                                      ---
     STORAGE-AQUEOUS =       2.5566E-05       STORAGE-AQUEOUS =       9.2639E-15     MST                              
                 WEL =           0.0000                   WEL =           0.0000     SSM_WEL1                         
                 WEL =           0.2290                   WEL =       5.0000E-04     SSM_WEL2                         

            TOTAL IN =           0.2290              TOTAL IN =       5.0000E-04

          OUT:                                     OUT:
          ----                                     ----
     STORAGE-AQUEOUS =           0.1042       STORAGE-AQUEOUS =       1.4260E-04     MST                              
                 WEL =           0.1248                   WEL =       3.5740E-04     SSM_WEL1                         
                 WEL =           0.0000                   WEL =           0.0000     SSM_WEL2                         

           TOTAL OUT =           0.2290             TOTAL OUT =       5.0000E-04

            IN - OUT =      -2.4158E-06              IN - OUT =      -4.6765E-09

 PERCENT DISCREPANCY =          -0.00     PERCENT DISCREPANCY =          -0.00




         TIME SUMMARY AT END OF TIME STEP  129 IN STRESS PERIOD    2
                    SECONDS     MINUTES      HOURS       DAYS        YEARS
                    -----------------------------------------------------------
   TIME STEP LENGTH 1.72800E+05  2880.0      48.000      2.0000     5.47570E-03
 STRESS PERIOD TIME 2.22912E+07 3.71520E+05  6192.0      258.00     0.70637    
         TOTAL TIME 3.95712E+07 6.59520E+05  10992.      458.00      1.2539    


end timestep


start timestep kper="2" kstp="130" mode="normal"

 UBDSV1 SAVING     FLOW-JA-FACE ON UNIT   1030 AT TIME STEP    130, STRESS PERIOD      2
 UBDSV1 SAVING  STORAGE-AQUEOUS ON UNIT   1030 AT TIME STEP    130, STRESS PERIOD      2
 UBDSV06 SAVING  SOURCE-SINK MIX IN MODEL SVA_TM_T         PACKAGE SVA_TM_T        CONNECTED TO MODEL SVA_TM_T         PACKAGE SSM              ON UNIT   1030 AT TIME STEP    130, STRESS PERIOD      2

 CONCENTRATION WILL BE SAVED ON UNIT 1031 AT END OF TIME STEP  130, STRESS PERIOD    2


  MASS BUDGET FOR ENTIRE MODEL AT END OF TIME STEP  130, STRESS PERIOD   2
  ---------------------------------------------------------------------------------------------------

     CUMULATIVE MASS      M       RATES FOR THIS TIME STEP      M/T          PACKAGE NAME    
     ------------------                 ------------------------                     ----------------

           IN:                                      IN:
           ---                                      ---
     STORAGE-AQUEOUS =       2.5566E-05       STORAGE-AQUEOUS =       1.2122E-14     MST                              
                 WEL =           0.0000                   WEL =           0.0000     SSM_WEL1                         
                 WEL =           0.2300                   WEL =       5.0000E-04     SSM_WEL2                         

            TOTAL IN =           0.2300              TOTAL IN =       5.0000E-04

          OUT:                                     OUT:
          ----                                     ----
     STORAGE-AQUEOUS =           0.1045       STORAGE-AQUEOUS =       1.4184E-04     MST                              
                 WEL =           0.1255                   WEL =       3.5816E-04     SSM_WEL1                         
                 WEL =           0.0000                   WEL =           0.0000     SSM_WEL2                         

           TOTAL OUT =           0.2300             TOTAL OUT =       5.0000E-04

            IN - OUT =      -2.4251E-06              IN - OUT =      -4.6582E-09

 PERCENT DISCREPANCY =          -0.00     PERCENT DISCREPANCY =          -0.00




         TIME SUMMARY AT END OF TIME STEP  130 IN STRESS PERIOD    2
                    SECONDS     MINUTES      HOURS       DAYS        YEARS
                    -----------------------------------------------------------
   TIME STEP LENGTH 1.72800E+05  2880.0      48.000      2.0000     5.47570E-03
 STRESS PERIOD TIME 2.24640E+07 3.74400E+05  6240.0      260.00     0.71184    
         TOTAL TIME 3.97440E+07 6.62400E+05  11040.      460.00      1.2594    


end timestep


start timestep kper="2" kstp="131" mode="normal"

 UBDSV1 SAVING     FLOW-JA-FACE ON UNIT   1030 AT TIME STEP    131, STRESS PERIOD      2
 UBDSV1 SAVING  STORAGE-AQUEOUS ON UNIT   1030 AT TIME STEP    131, STRESS PERIOD      2
 UBDSV06 SAVING  SOURCE-SINK MIX IN MODEL SVA_TM_T         PACKAGE SVA_TM_T        CONNECTED TO MODEL SVA_TM_T         PACKAGE SSM              ON UNIT   1030 AT TIME STEP    131, STRESS PERIOD      2

 CONCENTRATION WILL BE SAVED ON UNIT 1031 AT END OF TIME STEP  131, STRESS PERIOD    2


  MASS BUDGET FOR ENTIRE MODEL AT END OF TIME STEP  131, STRESS PERIOD   2
  ---------------------------------------------------------------------------------------------------

     CUMULATIVE MASS      M       RATES FOR THIS TIME STEP      M/T          PACKAGE NAME    
     ------------------                 ------------------------                     ----------------

           IN:                                      IN:
           ---                                      ---
     STORAGE-AQUEOUS =       2.5566E-05       STORAGE-AQUEOUS =       1.3747E-14     MST                              
                 WEL =           0.0000                   WEL =           0.0000     SSM_WEL1                         
                 WEL =           0.2310                   WEL =       5.0000E-04     SSM_WEL2                         

            TOTAL IN =           0.2310              TOTAL IN =       5.0000E-04

          OUT:                                     OUT:
          ----                                     ----
     STORAGE-AQUEOUS =           0.1048       STORAGE-AQUEOUS =       1.4109E-04     MST                              
                 WEL =           0.1262                   WEL =       3.5891E-04     SSM_WEL1                         
                 WEL =           0.0000                   WEL =           0.0000     SSM_WEL2                         

           TOTAL OUT =           0.2310             TOTAL OUT =       5.0000E-04

            IN - OUT =      -2.4304E-06              IN - OUT =      -2.6330E-09

 PERCENT DISCREPANCY =          -0.00     PERCENT DISCREPANCY =          -0.00




         TIME SUMMARY AT END OF TIME STEP  131 IN STRESS PERIOD    2
                    SECONDS     MINUTES      HOURS       DAYS        YEARS
                    -----------------------------------------------------------
   TIME STEP LENGTH 1.72800E+05  2880.0      48.000      2.0000     5.47570E-03
 STRESS PERIOD TIME 2.26368E+07 3.77280E+05  6288.0      262.00     0.71732    
         TOTAL TIME 3.99168E+07 6.65280E+05  11088.      462.00      1.2649    


end timestep


start timestep kper="2" kstp="132" mode="normal"

 UBDSV1 SAVING     FLOW-JA-FACE ON UNIT   1030 AT TIME STEP    132, STRESS PERIOD      2
 UBDSV1 SAVING  STORAGE-AQUEOUS ON UNIT   1030 AT TIME STEP    132, STRESS PERIOD      2
 UBDSV06 SAVING  SOURCE-SINK MIX IN MODEL SVA_TM_T         PACKAGE SVA_TM_T        CONNECTED TO MODEL SVA_TM_T         PACKAGE SSM              ON UNIT   1030 AT TIME STEP    132, STRESS PERIOD      2

 CONCENTRATION WILL BE SAVED ON UNIT 1031 AT END OF TIME STEP  132, STRESS PERIOD    2


  MASS BUDGET FOR ENTIRE MODEL AT END OF TIME STEP  132, STRESS PERIOD   2
  ---------------------------------------------------------------------------------------------------

     CUMULATIVE MASS      M       RATES FOR THIS TIME STEP      M/T          PACKAGE NAME    
     ------------------                 ------------------------                     ----------------

           IN:                                      IN:
           ---                                      ---
     STORAGE-AQUEOUS =       2.5566E-05       STORAGE-AQUEOUS =       1.4433E-14     MST                              
                 WEL =           0.0000                   WEL =           0.0000     SSM_WEL1                         
                 WEL =           0.2320                   WEL =       5.0000E-04     SSM_WEL2                         

            TOTAL IN =           0.2320              TOTAL IN =       5.0000E-04

          OUT:                                     OUT:
          ----                                     ----
     STORAGE-AQUEOUS =           0.1051       STORAGE-AQUEOUS =       1.4034E-04     MST                              
                 WEL =           0.1270                   WEL =       3.5967E-04     SSM_WEL1                         
                 WEL =           0.0000                   WEL =           0.0000     SSM_WEL2                         

           TOTAL OUT =           0.2320             TOTAL OUT =       5.0000E-04

            IN - OUT =      -2.4337E-06              IN - OUT =      -1.6426E-09

 PERCENT DISCREPANCY =          -0.00     PERCENT DISCREPANCY =          -0.00




         TIME SUMMARY AT END OF TIME STEP  132 IN STRESS PERIOD    2
                    SECONDS     MINUTES      HOURS       DAYS        YEARS
                    -----------------------------------------------------------
   TIME STEP LENGTH 1.72800E+05  2880.0      48.000      2.0000     5.47570E-03
 STRESS PERIOD TIME 2.28096E+07 3.80160E+05  6336.0      264.00     0.72279    
         TOTAL TIME 4.00896E+07 6.68160E+05  11136.      464.00      1.2704    


end timestep


start timestep kper="2" kstp="133" mode="normal"

 UBDSV1 SAVING     FLOW-JA-FACE ON UNIT   1030 AT TIME STEP    133, STRESS PERIOD      2
 UBDSV1 SAVING  STORAGE-AQUEOUS ON UNIT   1030 AT TIME STEP    133, STRESS PERIOD      2
 UBDSV06 SAVING  SOURCE-SINK MIX IN MODEL SVA_TM_T         PACKAGE SVA_TM_T        CONNECTED TO MODEL SVA_TM_T         PACKAGE SSM              ON UNIT   1030 AT TIME STEP    133, STRESS PERIOD      2

 CONCENTRATION WILL BE SAVED ON UNIT 1031 AT END OF TIME STEP  133, STRESS PERIOD    2


  MASS BUDGET FOR ENTIRE MODEL AT END OF TIME STEP  133, STRESS PERIOD   2
  ---------------------------------------------------------------------------------------------------

     CUMULATIVE MASS      M       RATES FOR THIS TIME STEP      M/T          PACKAGE NAME    
     ------------------                 ------------------------                     ----------------

           IN:                                      IN:
           ---                                      ---
     STORAGE-AQUEOUS =       2.5566E-05       STORAGE-AQUEOUS =       1.4387E-14     MST                              
                 WEL =           0.0000                   WEL =           0.0000     SSM_WEL1                         
                 WEL =           0.2330                   WEL =       5.0000E-04     SSM_WEL2                         

            TOTAL IN =           0.2330              TOTAL IN =       5.0000E-04

          OUT:                                     OUT:
          ----                                     ----
     STORAGE-AQUEOUS =           0.1053       STORAGE-AQUEOUS =       1.3959E-04     MST                              
                 WEL =           0.1277                   WEL =       3.6041E-04     SSM_WEL1                         
                 WEL =           0.0000                   WEL =           0.0000     SSM_WEL2                         

           TOTAL OUT =           0.2330             TOTAL OUT =       5.0000E-04

            IN - OUT =      -2.4350E-06              IN - OUT =      -6.7247E-10

 PERCENT DISCREPANCY =          -0.00     PERCENT DISCREPANCY =          -0.00




         TIME SUMMARY AT END OF TIME STEP  133 IN STRESS PERIOD    2
                    SECONDS     MINUTES      HOURS       DAYS        YEARS
                    -----------------------------------------------------------
   TIME STEP LENGTH 1.72800E+05  2880.0      48.000      2.0000     5.47570E-03
 STRESS PERIOD TIME 2.29824E+07 3.83040E+05  6384.0      266.00     0.72827    
         TOTAL TIME 4.02624E+07 6.71040E+05  11184.      466.00      1.2758    


end timestep


start timestep kper="2" kstp="134" mode="normal"

 UBDSV1 SAVING     FLOW-JA-FACE ON UNIT   1030 AT TIME STEP    134, STRESS PERIOD      2
 UBDSV1 SAVING  STORAGE-AQUEOUS ON UNIT   1030 AT TIME STEP    134, STRESS PERIOD      2
 UBDSV06 SAVING  SOURCE-SINK MIX IN MODEL SVA_TM_T         PACKAGE SVA_TM_T        CONNECTED TO MODEL SVA_TM_T         PACKAGE SSM              ON UNIT   1030 AT TIME STEP    134, STRESS PERIOD      2

 CONCENTRATION WILL BE SAVED ON UNIT 1031 AT END OF TIME STEP  134, STRESS PERIOD    2


  MASS BUDGET FOR ENTIRE MODEL AT END OF TIME STEP  134, STRESS PERIOD   2
  ---------------------------------------------------------------------------------------------------

     CUMULATIVE MASS      M       RATES FOR THIS TIME STEP      M/T          PACKAGE NAME    
     ------------------                 ------------------------                     ----------------

           IN:                                      IN:
           ---                                      ---
     STORAGE-AQUEOUS =       2.5566E-05       STORAGE-AQUEOUS =       1.3868E-14     MST                              
                 WEL =           0.0000                   WEL =           0.0000     SSM_WEL1                         
                 WEL =           0.2340                   WEL =       5.0000E-04     SSM_WEL2                         

            TOTAL IN =           0.2340              TOTAL IN =       5.0000E-04

          OUT:                                     OUT:
          ----                                     ----
     STORAGE-AQUEOUS =           0.1056       STORAGE-AQUEOUS =       1.3884E-04     MST                              
                 WEL =           0.1284                   WEL =       3.6117E-04     SSM_WEL1                         
                 WEL =           0.0000                   WEL =           0.0000     SSM_WEL2                         

           TOTAL OUT =           0.2340             TOTAL OUT =       5.0001E-04

            IN - OUT =      -2.4509E-06              IN - OUT =      -7.9578E-09

 PERCENT DISCREPANCY =          -0.00     PERCENT DISCREPANCY =          -0.00




         TIME SUMMARY AT END OF TIME STEP  134 IN STRESS PERIOD    2
                    SECONDS     MINUTES      HOURS       DAYS        YEARS
                    -----------------------------------------------------------
   TIME STEP LENGTH 1.72800E+05  2880.0      48.000      2.0000     5.47570E-03
 STRESS PERIOD TIME 2.31552E+07 3.85920E+05  6432.0      268.00     0.73374    
         TOTAL TIME 4.04352E+07 6.73920E+05  11232.      468.00      1.2813    


end timestep


start timestep kper="2" kstp="135" mode="normal"

 UBDSV1 SAVING     FLOW-JA-FACE ON UNIT   1030 AT TIME STEP    135, STRESS PERIOD      2
 UBDSV1 SAVING  STORAGE-AQUEOUS ON UNIT   1030 AT TIME STEP    135, STRESS PERIOD      2
 UBDSV06 SAVING  SOURCE-SINK MIX IN MODEL SVA_TM_T         PACKAGE SVA_TM_T        CONNECTED TO MODEL SVA_TM_T         PACKAGE SSM              ON UNIT   1030 AT TIME STEP    135, STRESS PERIOD      2

 CONCENTRATION WILL BE SAVED ON UNIT 1031 AT END OF TIME STEP  135, STRESS PERIOD    2


  MASS BUDGET FOR ENTIRE MODEL AT END OF TIME STEP  135, STRESS PERIOD   2
  ---------------------------------------------------------------------------------------------------

     CUMULATIVE MASS      M       RATES FOR THIS TIME STEP      M/T          PACKAGE NAME    
     ------------------                 ------------------------                     ----------------

           IN:                                      IN:
           ---                                      ---
     STORAGE-AQUEOUS =       2.5566E-05       STORAGE-AQUEOUS =       1.3021E-14     MST                              
                 WEL =           0.0000                   WEL =           0.0000     SSM_WEL1                         
                 WEL =           0.2350                   WEL =       5.0000E-04     SSM_WEL2                         

            TOTAL IN =           0.2350              TOTAL IN =       5.0000E-04

          OUT:                                     OUT:
          ----                                     ----
     STORAGE-AQUEOUS =           0.1059       STORAGE-AQUEOUS =       1.3809E-04     MST                              
                 WEL =           0.1291                   WEL =       3.6192E-04     SSM_WEL1                         
                 WEL =           0.0000                   WEL =           0.0000     SSM_WEL2                         

           TOTAL OUT =           0.2350             TOTAL OUT =       5.0001E-04

            IN - OUT =      -2.4686E-06              IN - OUT =      -8.8347E-09

 PERCENT DISCREPANCY =          -0.00     PERCENT DISCREPANCY =          -0.00




         TIME SUMMARY AT END OF TIME STEP  135 IN STRESS PERIOD    2
                    SECONDS     MINUTES      HOURS       DAYS        YEARS
                    -----------------------------------------------------------
   TIME STEP LENGTH 1.72800E+05  2880.0      48.000      2.0000     5.47570E-03
 STRESS PERIOD TIME 2.33280E+07 3.88800E+05  6480.0      270.00     0.73922    
         TOTAL TIME 4.06080E+07 6.76800E+05  11280.      470.00      1.2868    


end timestep


start timestep kper="2" kstp="136" mode="normal"

 UBDSV1 SAVING     FLOW-JA-FACE ON UNIT   1030 AT TIME STEP    136, STRESS PERIOD      2
 UBDSV1 SAVING  STORAGE-AQUEOUS ON UNIT   1030 AT TIME STEP    136, STRESS PERIOD      2
 UBDSV06 SAVING  SOURCE-SINK MIX IN MODEL SVA_TM_T         PACKAGE SVA_TM_T        CONNECTED TO MODEL SVA_TM_T         PACKAGE SSM              ON UNIT   1030 AT TIME STEP    136, STRESS PERIOD      2

 CONCENTRATION WILL BE SAVED ON UNIT 1031 AT END OF TIME STEP  136, STRESS PERIOD    2


  MASS BUDGET FOR ENTIRE MODEL AT END OF TIME STEP  136, STRESS PERIOD   2
  ---------------------------------------------------------------------------------------------------

     CUMULATIVE MASS      M       RATES FOR THIS TIME STEP      M/T          PACKAGE NAME    
     ------------------                 ------------------------                     ----------------

           IN:                                      IN:
           ---                                      ---
     STORAGE-AQUEOUS =       2.5566E-05       STORAGE-AQUEOUS =       1.2061E-14     MST                              
                 WEL =           0.0000                   WEL =           0.0000     SSM_WEL1                         
                 WEL =           0.2360                   WEL =       5.0000E-04     SSM_WEL2                         

            TOTAL IN =           0.2360              TOTAL IN =       5.0000E-04

          OUT:                                     OUT:
          ----                                     ----
     STORAGE-AQUEOUS =           0.1062       STORAGE-AQUEOUS =       1.3735E-04     MST                              
                 WEL =           0.1299                   WEL =       3.6266E-04     SSM_WEL1                         
                 WEL =           0.0000                   WEL =           0.0000     SSM_WEL2                         

           TOTAL OUT =           0.2360             TOTAL OUT =       5.0001E-04

            IN - OUT =      -2.4866E-06              IN - OUT =      -8.9939E-09

 PERCENT DISCREPANCY =          -0.00     PERCENT DISCREPANCY =          -0.00




         TIME SUMMARY AT END OF TIME STEP  136 IN STRESS PERIOD    2
                    SECONDS     MINUTES      HOURS       DAYS        YEARS
                    -----------------------------------------------------------
   TIME STEP LENGTH 1.72800E+05  2880.0      48.000      2.0000     5.47570E-03
 STRESS PERIOD TIME 2.35008E+07 3.91680E+05  6528.0      272.00     0.74470    
         TOTAL TIME 4.07808E+07 6.79680E+05  11328.      472.00      1.2923    


end timestep


start timestep kper="2" kstp="137" mode="normal"

 UBDSV1 SAVING     FLOW-JA-FACE ON UNIT   1030 AT TIME STEP    137, STRESS PERIOD      2
 UBDSV1 SAVING  STORAGE-AQUEOUS ON UNIT   1030 AT TIME STEP    137, STRESS PERIOD      2
 UBDSV06 SAVING  SOURCE-SINK MIX IN MODEL SVA_TM_T         PACKAGE SVA_TM_T        CONNECTED TO MODEL SVA_TM_T         PACKAGE SSM              ON UNIT   1030 AT TIME STEP    137, STRESS PERIOD      2

 CONCENTRATION WILL BE SAVED ON UNIT 1031 AT END OF TIME STEP  137, STRESS PERIOD    2


  MASS BUDGET FOR ENTIRE MODEL AT END OF TIME STEP  137, STRESS PERIOD   2
  ---------------------------------------------------------------------------------------------------

     CUMULATIVE MASS      M       RATES FOR THIS TIME STEP      M/T          PACKAGE NAME    
     ------------------                 ------------------------                     ----------------

           IN:                                      IN:
           ---                                      ---
     STORAGE-AQUEOUS =       2.5566E-05       STORAGE-AQUEOUS =       1.1092E-14     MST                              
                 WEL =           0.0000                   WEL =           0.0000     SSM_WEL1                         
                 WEL =           0.2370                   WEL =       5.0000E-04     SSM_WEL2                         

            TOTAL IN =           0.2370              TOTAL IN =       5.0000E-04

          OUT:                                     OUT:
          ----                                     ----
     STORAGE-AQUEOUS =           0.1064       STORAGE-AQUEOUS =       1.3660E-04     MST                              
                 WEL =           0.1306                   WEL =       3.6341E-04     SSM_WEL1                         
                 WEL =           0.0000                   WEL =           0.0000     SSM_WEL2                         

           TOTAL OUT =           0.2370             TOTAL OUT =       5.0001E-04

            IN - OUT =      -2.5049E-06              IN - OUT =      -9.1441E-09

 PERCENT DISCREPANCY =          -0.00     PERCENT DISCREPANCY =          -0.00




         TIME SUMMARY AT END OF TIME STEP  137 IN STRESS PERIOD    2
                    SECONDS     MINUTES      HOURS       DAYS        YEARS
                    -----------------------------------------------------------
   TIME STEP LENGTH 1.72800E+05  2880.0      48.000      2.0000     5.47570E-03
 STRESS PERIOD TIME 2.36736E+07 3.94560E+05  6576.0      274.00     0.75017    
         TOTAL TIME 4.09536E+07 6.82560E+05  11376.      474.00      1.2977    


end timestep


start timestep kper="2" kstp="138" mode="normal"

 UBDSV1 SAVING     FLOW-JA-FACE ON UNIT   1030 AT TIME STEP    138, STRESS PERIOD      2
 UBDSV1 SAVING  STORAGE-AQUEOUS ON UNIT   1030 AT TIME STEP    138, STRESS PERIOD      2
 UBDSV06 SAVING  SOURCE-SINK MIX IN MODEL SVA_TM_T         PACKAGE SVA_TM_T        CONNECTED TO MODEL SVA_TM_T         PACKAGE SSM              ON UNIT   1030 AT TIME STEP    138, STRESS PERIOD      2

 CONCENTRATION WILL BE SAVED ON UNIT 1031 AT END OF TIME STEP  138, STRESS PERIOD    2


  MASS BUDGET FOR ENTIRE MODEL AT END OF TIME STEP  138, STRESS PERIOD   2
  ---------------------------------------------------------------------------------------------------

     CUMULATIVE MASS      M       RATES FOR THIS TIME STEP      M/T          PACKAGE NAME    
     ------------------                 ------------------------                     ----------------

           IN:                                      IN:
           ---                                      ---
     STORAGE-AQUEOUS =       2.5566E-05       STORAGE-AQUEOUS =       1.0163E-14     MST                              
                 WEL =           0.0000                   WEL =           0.0000     SSM_WEL1                         
                 WEL =           0.2380                   WEL =       5.0000E-04     SSM_WEL2                         

            TOTAL IN =           0.2380              TOTAL IN =       5.0000E-04

          OUT:                                     OUT:
          ----                                     ----
     STORAGE-AQUEOUS =           0.1067       STORAGE-AQUEOUS =       1.3586E-04     MST                              
                 WEL =           0.1313                   WEL =       3.6415E-04     SSM_WEL1                         
                 WEL =           0.0000                   WEL =           0.0000     SSM_WEL2                         

           TOTAL OUT =           0.2380             TOTAL OUT =       5.0001E-04

            IN - OUT =      -2.5232E-06              IN - OUT =      -9.1651E-09

 PERCENT DISCREPANCY =          -0.00     PERCENT DISCREPANCY =          -0.00




         TIME SUMMARY AT END OF TIME STEP  138 IN STRESS PERIOD    2
                    SECONDS     MINUTES      HOURS       DAYS        YEARS
                    -----------------------------------------------------------
   TIME STEP LENGTH 1.72800E+05  2880.0      48.000      2.0000     5.47570E-03
 STRESS PERIOD TIME 2.38464E+07 3.97440E+05  6624.0      276.00     0.75565    
         TOTAL TIME 4.11264E+07 6.85440E+05  11424.      476.00      1.3032    


end timestep


start timestep kper="2" kstp="139" mode="normal"

 UBDSV1 SAVING     FLOW-JA-FACE ON UNIT   1030 AT TIME STEP    139, STRESS PERIOD      2
 UBDSV1 SAVING  STORAGE-AQUEOUS ON UNIT   1030 AT TIME STEP    139, STRESS PERIOD      2
 UBDSV06 SAVING  SOURCE-SINK MIX IN MODEL SVA_TM_T         PACKAGE SVA_TM_T        CONNECTED TO MODEL SVA_TM_T         PACKAGE SSM              ON UNIT   1030 AT TIME STEP    139, STRESS PERIOD      2

 CONCENTRATION WILL BE SAVED ON UNIT 1031 AT END OF TIME STEP  139, STRESS PERIOD    2


  MASS BUDGET FOR ENTIRE MODEL AT END OF TIME STEP  139, STRESS PERIOD   2
  ---------------------------------------------------------------------------------------------------

     CUMULATIVE MASS      M       RATES FOR THIS TIME STEP      M/T          PACKAGE NAME    
     ------------------                 ------------------------                     ----------------

           IN:                                      IN:
           ---                                      ---
     STORAGE-AQUEOUS =       2.5566E-05       STORAGE-AQUEOUS =       9.3696E-15     MST                              
                 WEL =           0.0000                   WEL =           0.0000     SSM_WEL1                         
                 WEL =           0.2390                   WEL =       5.0000E-04     SSM_WEL2                         

            TOTAL IN =           0.2390              TOTAL IN =       5.0000E-04

          OUT:                                     OUT:
          ----                                     ----
     STORAGE-AQUEOUS =           0.1070       STORAGE-AQUEOUS =       1.3513E-04     MST                              
                 WEL =           0.1320                   WEL =       3.6488E-04     SSM_WEL1                         
                 WEL =           0.0000                   WEL =           0.0000     SSM_WEL2                         

           TOTAL OUT =           0.2390             TOTAL OUT =       5.0001E-04

            IN - OUT =      -2.5415E-06              IN - OUT =      -9.1713E-09

 PERCENT DISCREPANCY =          -0.00     PERCENT DISCREPANCY =          -0.00




         TIME SUMMARY AT END OF TIME STEP  139 IN STRESS PERIOD    2
                    SECONDS     MINUTES      HOURS       DAYS        YEARS
                    -----------------------------------------------------------
   TIME STEP LENGTH 1.72800E+05  2880.0      48.000      2.0000     5.47570E-03
 STRESS PERIOD TIME 2.40192E+07 4.00320E+05  6672.0      278.00     0.76112    
         TOTAL TIME 4.12992E+07 6.88320E+05  11472.      478.00      1.3087    


end timestep


start timestep kper="2" kstp="140" mode="normal"

 UBDSV1 SAVING     FLOW-JA-FACE ON UNIT   1030 AT TIME STEP    140, STRESS PERIOD      2
 UBDSV1 SAVING  STORAGE-AQUEOUS ON UNIT   1030 AT TIME STEP    140, STRESS PERIOD      2
 UBDSV06 SAVING  SOURCE-SINK MIX IN MODEL SVA_TM_T         PACKAGE SVA_TM_T        CONNECTED TO MODEL SVA_TM_T         PACKAGE SSM              ON UNIT   1030 AT TIME STEP    140, STRESS PERIOD      2

 CONCENTRATION WILL BE SAVED ON UNIT 1031 AT END OF TIME STEP  140, STRESS PERIOD    2


  MASS BUDGET FOR ENTIRE MODEL AT END OF TIME STEP  140, STRESS PERIOD   2
  ---------------------------------------------------------------------------------------------------

     CUMULATIVE MASS      M       RATES FOR THIS TIME STEP      M/T          PACKAGE NAME    
     ------------------                 ------------------------                     ----------------

           IN:                                      IN:
           ---                                      ---
     STORAGE-AQUEOUS =       2.5566E-05       STORAGE-AQUEOUS =       8.6538E-15     MST                              
                 WEL =           0.0000                   WEL =           0.0000     SSM_WEL1                         
                 WEL =           0.2400                   WEL =       5.0000E-04     SSM_WEL2                         

            TOTAL IN =           0.2400              TOTAL IN =       5.0000E-04

          OUT:                                     OUT:
          ----                                     ----
     STORAGE-AQUEOUS =           0.1073       STORAGE-AQUEOUS =       1.3439E-04     MST                              
                 WEL =           0.1328                   WEL =       3.6562E-04     SSM_WEL1                         
                 WEL =           0.0000                   WEL =           0.0000     SSM_WEL2                         

           TOTAL OUT =           0.2400             TOTAL OUT =       5.0001E-04

            IN - OUT =      -2.5598E-06              IN - OUT =      -9.1201E-09

 PERCENT DISCREPANCY =          -0.00     PERCENT DISCREPANCY =          -0.00




         TIME SUMMARY AT END OF TIME STEP  140 IN STRESS PERIOD    2
                    SECONDS     MINUTES      HOURS       DAYS        YEARS
                    -----------------------------------------------------------
   TIME STEP LENGTH 1.72800E+05  2880.0      48.000      2.0000     5.47570E-03
 STRESS PERIOD TIME 2.41920E+07 4.03200E+05  6720.0      280.00     0.76660    
         TOTAL TIME 4.14720E+07 6.91200E+05  11520.      480.00      1.3142    


end timestep


start timestep kper="2" kstp="141" mode="normal"

 UBDSV1 SAVING     FLOW-JA-FACE ON UNIT   1030 AT TIME STEP    141, STRESS PERIOD      2
 UBDSV1 SAVING  STORAGE-AQUEOUS ON UNIT   1030 AT TIME STEP    141, STRESS PERIOD      2
 UBDSV06 SAVING  SOURCE-SINK MIX IN MODEL SVA_TM_T         PACKAGE SVA_TM_T        CONNECTED TO MODEL SVA_TM_T         PACKAGE SSM              ON UNIT   1030 AT TIME STEP    141, STRESS PERIOD      2

 CONCENTRATION WILL BE SAVED ON UNIT 1031 AT END OF TIME STEP  141, STRESS PERIOD    2


  MASS BUDGET FOR ENTIRE MODEL AT END OF TIME STEP  141, STRESS PERIOD   2
  ---------------------------------------------------------------------------------------------------

     CUMULATIVE MASS      M       RATES FOR THIS TIME STEP      M/T          PACKAGE NAME    
     ------------------                 ------------------------                     ----------------

           IN:                                      IN:
           ---                                      ---
     STORAGE-AQUEOUS =       2.5566E-05       STORAGE-AQUEOUS =       3.4272E-14     MST                              
                 WEL =           0.0000                   WEL =           0.0000     SSM_WEL1                         
                 WEL =           0.2410                   WEL =       5.0000E-04     SSM_WEL2                         

            TOTAL IN =           0.2410              TOTAL IN =       5.0000E-04

          OUT:                                     OUT:
          ----                                     ----
     STORAGE-AQUEOUS =           0.1075       STORAGE-AQUEOUS =       1.3367E-04     MST                              
                 WEL =           0.1335                   WEL =       3.6634E-04     SSM_WEL1                         
                 WEL =           0.0000                   WEL =           0.0000     SSM_WEL2                         

           TOTAL OUT =           0.2410             TOTAL OUT =       5.0001E-04

            IN - OUT =      -2.5779E-06              IN - OUT =      -9.0617E-09

 PERCENT DISCREPANCY =          -0.00     PERCENT DISCREPANCY =          -0.00




         TIME SUMMARY AT END OF TIME STEP  141 IN STRESS PERIOD    2
                    SECONDS     MINUTES      HOURS       DAYS        YEARS
                    -----------------------------------------------------------
   TIME STEP LENGTH 1.72800E+05  2880.0      48.000      2.0000     5.47570E-03
 STRESS PERIOD TIME 2.43648E+07 4.06080E+05  6768.0      282.00     0.77207    
         TOTAL TIME 4.16448E+07 6.94080E+05  11568.      482.00      1.3196    


end timestep


start timestep kper="2" kstp="142" mode="normal"

 UBDSV1 SAVING     FLOW-JA-FACE ON UNIT   1030 AT TIME STEP    142, STRESS PERIOD      2
 UBDSV1 SAVING  STORAGE-AQUEOUS ON UNIT   1030 AT TIME STEP    142, STRESS PERIOD      2
 UBDSV06 SAVING  SOURCE-SINK MIX IN MODEL SVA_TM_T         PACKAGE SVA_TM_T        CONNECTED TO MODEL SVA_TM_T         PACKAGE SSM              ON UNIT   1030 AT TIME STEP    142, STRESS PERIOD      2

 CONCENTRATION WILL BE SAVED ON UNIT 1031 AT END OF TIME STEP  142, STRESS PERIOD    2


  MASS BUDGET FOR ENTIRE MODEL AT END OF TIME STEP  142, STRESS PERIOD   2
  ---------------------------------------------------------------------------------------------------

     CUMULATIVE MASS      M       RATES FOR THIS TIME STEP      M/T          PACKAGE NAME    
     ------------------                 ------------------------                     ----------------

           IN:                                      IN:
           ---                                      ---
     STORAGE-AQUEOUS =       2.5566E-05       STORAGE-AQUEOUS =       2.4888E-13     MST                              
                 WEL =           0.0000                   WEL =           0.0000     SSM_WEL1                         
                 WEL =           0.2420                   WEL =       5.0000E-04     SSM_WEL2                         

            TOTAL IN =           0.2420              TOTAL IN =       5.0000E-04

          OUT:                                     OUT:
          ----                                     ----
     STORAGE-AQUEOUS =           0.1078       STORAGE-AQUEOUS =       1.3294E-04     MST                              
                 WEL =           0.1342                   WEL =       3.6707E-04     SSM_WEL1                         
                 WEL =           0.0000                   WEL =           0.0000     SSM_WEL2                         

           TOTAL OUT =           0.2420             TOTAL OUT =       5.0001E-04

            IN - OUT =      -2.5957E-06              IN - OUT =      -8.8978E-09

 PERCENT DISCREPANCY =          -0.00     PERCENT DISCREPANCY =          -0.00




         TIME SUMMARY AT END OF TIME STEP  142 IN STRESS PERIOD    2
                    SECONDS     MINUTES      HOURS       DAYS        YEARS
                    -----------------------------------------------------------
   TIME STEP LENGTH 1.72800E+05  2880.0      48.000      2.0000     5.47570E-03
 STRESS PERIOD TIME 2.45376E+07 4.08960E+05  6816.0      284.00     0.77755    
         TOTAL TIME 4.18176E+07 6.96960E+05  11616.      484.00      1.3251    


end timestep


start timestep kper="2" kstp="143" mode="normal"

 UBDSV1 SAVING     FLOW-JA-FACE ON UNIT   1030 AT TIME STEP    143, STRESS PERIOD      2
 UBDSV1 SAVING  STORAGE-AQUEOUS ON UNIT   1030 AT TIME STEP    143, STRESS PERIOD      2
 UBDSV06 SAVING  SOURCE-SINK MIX IN MODEL SVA_TM_T         PACKAGE SVA_TM_T        CONNECTED TO MODEL SVA_TM_T         PACKAGE SSM              ON UNIT   1030 AT TIME STEP    143, STRESS PERIOD      2

 CONCENTRATION WILL BE SAVED ON UNIT 1031 AT END OF TIME STEP  143, STRESS PERIOD    2


  MASS BUDGET FOR ENTIRE MODEL AT END OF TIME STEP  143, STRESS PERIOD   2
  ---------------------------------------------------------------------------------------------------

     CUMULATIVE MASS      M       RATES FOR THIS TIME STEP      M/T          PACKAGE NAME    
     ------------------                 ------------------------                     ----------------

           IN:                                      IN:
           ---                                      ---
     STORAGE-AQUEOUS =       2.5566E-05       STORAGE-AQUEOUS =       4.1682E-13     MST                              
                 WEL =           0.0000                   WEL =           0.0000     SSM_WEL1                         
                 WEL =           0.2430                   WEL =       5.0000E-04     SSM_WEL2                         

            TOTAL IN =           0.2430              TOTAL IN =       5.0000E-04

          OUT:                                     OUT:
          ----                                     ----
     STORAGE-AQUEOUS =           0.1081       STORAGE-AQUEOUS =       1.3222E-04     MST                              
                 WEL =           0.1350                   WEL =       3.6778E-04     SSM_WEL1                         
                 WEL =           0.0000                   WEL =           0.0000     SSM_WEL2                         

           TOTAL OUT =           0.2430             TOTAL OUT =       5.0001E-04

            IN - OUT =      -2.6133E-06              IN - OUT =      -8.7998E-09

 PERCENT DISCREPANCY =          -0.00     PERCENT DISCREPANCY =          -0.00




         TIME SUMMARY AT END OF TIME STEP  143 IN STRESS PERIOD    2
                    SECONDS     MINUTES      HOURS       DAYS        YEARS
                    -----------------------------------------------------------
   TIME STEP LENGTH 1.72800E+05  2880.0      48.000      2.0000     5.47570E-03
 STRESS PERIOD TIME 2.47104E+07 4.11840E+05  6864.0      286.00     0.78303    
         TOTAL TIME 4.19904E+07 6.99840E+05  11664.      486.00      1.3306    


end timestep


start timestep kper="2" kstp="144" mode="normal"

 UBDSV1 SAVING     FLOW-JA-FACE ON UNIT   1030 AT TIME STEP    144, STRESS PERIOD      2
 UBDSV1 SAVING  STORAGE-AQUEOUS ON UNIT   1030 AT TIME STEP    144, STRESS PERIOD      2
 UBDSV06 SAVING  SOURCE-SINK MIX IN MODEL SVA_TM_T         PACKAGE SVA_TM_T        CONNECTED TO MODEL SVA_TM_T         PACKAGE SSM              ON UNIT   1030 AT TIME STEP    144, STRESS PERIOD      2

 CONCENTRATION WILL BE SAVED ON UNIT 1031 AT END OF TIME STEP  144, STRESS PERIOD    2


  MASS BUDGET FOR ENTIRE MODEL AT END OF TIME STEP  144, STRESS PERIOD   2
  ---------------------------------------------------------------------------------------------------

     CUMULATIVE MASS      M       RATES FOR THIS TIME STEP      M/T          PACKAGE NAME    
     ------------------                 ------------------------                     ----------------

           IN:                                      IN:
           ---                                      ---
     STORAGE-AQUEOUS =       2.5566E-05       STORAGE-AQUEOUS =       5.0001E-13     MST                              
                 WEL =           0.0000                   WEL =           0.0000     SSM_WEL1                         
                 WEL =           0.2440                   WEL =       5.0000E-04     SSM_WEL2                         

            TOTAL IN =           0.2440              TOTAL IN =       5.0000E-04

          OUT:                                     OUT:
          ----                                     ----
     STORAGE-AQUEOUS =           0.1083       STORAGE-AQUEOUS =       1.3151E-04     MST                              
                 WEL =           0.1357                   WEL =       3.6850E-04     SSM_WEL1                         
                 WEL =           0.0000                   WEL =           0.0000     SSM_WEL2                         

           TOTAL OUT =           0.2440             TOTAL OUT =       5.0001E-04

            IN - OUT =      -2.6319E-06              IN - OUT =      -9.3150E-09

 PERCENT DISCREPANCY =          -0.00     PERCENT DISCREPANCY =          -0.00




         TIME SUMMARY AT END OF TIME STEP  144 IN STRESS PERIOD    2
                    SECONDS     MINUTES      HOURS       DAYS        YEARS
                    -----------------------------------------------------------
   TIME STEP LENGTH 1.72800E+05  2880.0      48.000      2.0000     5.47570E-03
 STRESS PERIOD TIME 2.48832E+07 4.14720E+05  6912.0      288.00     0.78850    
         TOTAL TIME 4.21632E+07 7.02720E+05  11712.      488.00      1.3361    


end timestep


start timestep kper="2" kstp="145" mode="normal"

 UBDSV1 SAVING     FLOW-JA-FACE ON UNIT   1030 AT TIME STEP    145, STRESS PERIOD      2
 UBDSV1 SAVING  STORAGE-AQUEOUS ON UNIT   1030 AT TIME STEP    145, STRESS PERIOD      2
 UBDSV06 SAVING  SOURCE-SINK MIX IN MODEL SVA_TM_T         PACKAGE SVA_TM_T        CONNECTED TO MODEL SVA_TM_T         PACKAGE SSM              ON UNIT   1030 AT TIME STEP    145, STRESS PERIOD      2

 CONCENTRATION WILL BE SAVED ON UNIT 1031 AT END OF TIME STEP  145, STRESS PERIOD    2


  MASS BUDGET FOR ENTIRE MODEL AT END OF TIME STEP  145, STRESS PERIOD   2
  ---------------------------------------------------------------------------------------------------

     CUMULATIVE MASS      M       RATES FOR THIS TIME STEP      M/T          PACKAGE NAME    
     ------------------                 ------------------------                     ----------------

           IN:                                      IN:
           ---                                      ---
     STORAGE-AQUEOUS =       2.5566E-05       STORAGE-AQUEOUS =       5.2933E-13     MST                              
                 WEL =           0.0000                   WEL =           0.0000     SSM_WEL1                         
                 WEL =           0.2450                   WEL =       5.0000E-04     SSM_WEL2                         

            TOTAL IN =           0.2450              TOTAL IN =       5.0000E-04

          OUT:                                     OUT:
          ----                                     ----
     STORAGE-AQUEOUS =           0.1086       STORAGE-AQUEOUS =       1.3080E-04     MST                              
                 WEL =           0.1365                   WEL =       3.6921E-04     SSM_WEL1                         
                 WEL =           0.0000                   WEL =           0.0000     SSM_WEL2                         

           TOTAL OUT =           0.2450             TOTAL OUT =       5.0001E-04

            IN - OUT =      -2.6509E-06              IN - OUT =      -9.4655E-09

 PERCENT DISCREPANCY =          -0.00     PERCENT DISCREPANCY =          -0.00




         TIME SUMMARY AT END OF TIME STEP  145 IN STRESS PERIOD    2
                    SECONDS     MINUTES      HOURS       DAYS        YEARS
                    -----------------------------------------------------------
   TIME STEP LENGTH 1.72800E+05  2880.0      48.000      2.0000     5.47570E-03
 STRESS PERIOD TIME 2.50560E+07 4.17600E+05  6960.0      290.00     0.79398    
         TOTAL TIME 4.23360E+07 7.05600E+05  11760.      490.00      1.3415    


end timestep


start timestep kper="2" kstp="146" mode="normal"

 UBDSV1 SAVING     FLOW-JA-FACE ON UNIT   1030 AT TIME STEP    146, STRESS PERIOD      2
 UBDSV1 SAVING  STORAGE-AQUEOUS ON UNIT   1030 AT TIME STEP    146, STRESS PERIOD      2
 UBDSV06 SAVING  SOURCE-SINK MIX IN MODEL SVA_TM_T         PACKAGE SVA_TM_T        CONNECTED TO MODEL SVA_TM_T         PACKAGE SSM              ON UNIT   1030 AT TIME STEP    146, STRESS PERIOD      2

 CONCENTRATION WILL BE SAVED ON UNIT 1031 AT END OF TIME STEP  146, STRESS PERIOD    2


  MASS BUDGET FOR ENTIRE MODEL AT END OF TIME STEP  146, STRESS PERIOD   2
  ---------------------------------------------------------------------------------------------------

     CUMULATIVE MASS      M       RATES FOR THIS TIME STEP      M/T          PACKAGE NAME    
     ------------------                 ------------------------                     ----------------

           IN:                                      IN:
           ---                                      ---
     STORAGE-AQUEOUS =       2.5566E-05       STORAGE-AQUEOUS =       5.2198E-13     MST                              
                 WEL =           0.0000                   WEL =           0.0000     SSM_WEL1                         
                 WEL =           0.2460                   WEL =       5.0000E-04     SSM_WEL2                         

            TOTAL IN =           0.2460              TOTAL IN =       5.0000E-04

          OUT:                                     OUT:
          ----                                     ----
     STORAGE-AQUEOUS =           0.1088       STORAGE-AQUEOUS =       1.3009E-04     MST                              
                 WEL =           0.1372                   WEL =       3.6992E-04     SSM_WEL1                         
                 WEL =           0.0000                   WEL =           0.0000     SSM_WEL2                         

           TOTAL OUT =           0.2460             TOTAL OUT =       5.0001E-04

            IN - OUT =      -2.6699E-06              IN - OUT =      -9.5302E-09

 PERCENT DISCREPANCY =          -0.00     PERCENT DISCREPANCY =          -0.00




         TIME SUMMARY AT END OF TIME STEP  146 IN STRESS PERIOD    2
                    SECONDS     MINUTES      HOURS       DAYS        YEARS
                    -----------------------------------------------------------
   TIME STEP LENGTH 1.72800E+05  2880.0      48.000      2.0000     5.47570E-03
 STRESS PERIOD TIME 2.52288E+07 4.20480E+05  7008.0      292.00     0.79945    
         TOTAL TIME 4.25088E+07 7.08480E+05  11808.      492.00      1.3470    


end timestep


start timestep kper="2" kstp="147" mode="normal"

 UBDSV1 SAVING     FLOW-JA-FACE ON UNIT   1030 AT TIME STEP    147, STRESS PERIOD      2
 UBDSV1 SAVING  STORAGE-AQUEOUS ON UNIT   1030 AT TIME STEP    147, STRESS PERIOD      2
 UBDSV06 SAVING  SOURCE-SINK MIX IN MODEL SVA_TM_T         PACKAGE SVA_TM_T        CONNECTED TO MODEL SVA_TM_T         PACKAGE SSM              ON UNIT   1030 AT TIME STEP    147, STRESS PERIOD      2

 CONCENTRATION WILL BE SAVED ON UNIT 1031 AT END OF TIME STEP  147, STRESS PERIOD    2


  MASS BUDGET FOR ENTIRE MODEL AT END OF TIME STEP  147, STRESS PERIOD   2
  ---------------------------------------------------------------------------------------------------

     CUMULATIVE MASS      M       RATES FOR THIS TIME STEP      M/T          PACKAGE NAME    
     ------------------                 ------------------------                     ----------------

           IN:                                      IN:
           ---                                      ---
     STORAGE-AQUEOUS =       2.5566E-05       STORAGE-AQUEOUS =       4.8478E-13     MST                              
                 WEL =           0.0000                   WEL =           0.0000     SSM_WEL1                         
                 WEL =           0.2470                   WEL =       5.0000E-04     SSM_WEL2                         

            TOTAL IN =           0.2470              TOTAL IN =       5.0000E-04

          OUT:                                     OUT:
          ----                                     ----
     STORAGE-AQUEOUS =           0.1091       STORAGE-AQUEOUS =       1.2939E-04     MST                              
                 WEL =           0.1379                   WEL =       3.7062E-04     SSM_WEL1                         
                 WEL =           0.0000                   WEL =           0.0000     SSM_WEL2                         

           TOTAL OUT =           0.2470             TOTAL OUT =       5.0001E-04

            IN - OUT =      -2.6891E-06              IN - OUT =      -9.5922E-09

 PERCENT DISCREPANCY =          -0.00     PERCENT DISCREPANCY =          -0.00




         TIME SUMMARY AT END OF TIME STEP  147 IN STRESS PERIOD    2
                    SECONDS     MINUTES      HOURS       DAYS        YEARS
                    -----------------------------------------------------------
   TIME STEP LENGTH 1.72800E+05  2880.0      48.000      2.0000     5.47570E-03
 STRESS PERIOD TIME 2.54016E+07 4.23360E+05  7056.0      294.00     0.80493    
         TOTAL TIME 4.26816E+07 7.11360E+05  11856.      494.00      1.3525    


end timestep


start timestep kper="2" kstp="148" mode="normal"

 UBDSV1 SAVING     FLOW-JA-FACE ON UNIT   1030 AT TIME STEP    148, STRESS PERIOD      2
 UBDSV1 SAVING  STORAGE-AQUEOUS ON UNIT   1030 AT TIME STEP    148, STRESS PERIOD      2
 UBDSV06 SAVING  SOURCE-SINK MIX IN MODEL SVA_TM_T         PACKAGE SVA_TM_T        CONNECTED TO MODEL SVA_TM_T         PACKAGE SSM              ON UNIT   1030 AT TIME STEP    148, STRESS PERIOD      2

 CONCENTRATION WILL BE SAVED ON UNIT 1031 AT END OF TIME STEP  148, STRESS PERIOD    2


  MASS BUDGET FOR ENTIRE MODEL AT END OF TIME STEP  148, STRESS PERIOD   2
  ---------------------------------------------------------------------------------------------------

     CUMULATIVE MASS      M       RATES FOR THIS TIME STEP      M/T          PACKAGE NAME    
     ------------------                 ------------------------                     ----------------

           IN:                                      IN:
           ---                                      ---
     STORAGE-AQUEOUS =       2.5566E-05       STORAGE-AQUEOUS =       4.2936E-13     MST                              
                 WEL =           0.0000                   WEL =           0.0000     SSM_WEL1                         
                 WEL =           0.2480                   WEL =       5.0000E-04     SSM_WEL2                         

            TOTAL IN =           0.2480              TOTAL IN =       5.0000E-04

          OUT:                                     OUT:
          ----                                     ----
     STORAGE-AQUEOUS =           0.1094       STORAGE-AQUEOUS =       1.2869E-04     MST                              
                 WEL =           0.1387                   WEL =       3.7132E-04     SSM_WEL1                         
                 WEL =           0.0000                   WEL =           0.0000     SSM_WEL2                         

           TOTAL OUT =           0.2480             TOTAL OUT =       5.0001E-04

            IN - OUT =      -2.7084E-06              IN - OUT =      -9.6651E-09

 PERCENT DISCREPANCY =          -0.00     PERCENT DISCREPANCY =          -0.00




         TIME SUMMARY AT END OF TIME STEP  148 IN STRESS PERIOD    2
                    SECONDS     MINUTES      HOURS       DAYS        YEARS
                    -----------------------------------------------------------
   TIME STEP LENGTH 1.72800E+05  2880.0      48.000      2.0000     5.47570E-03
 STRESS PERIOD TIME 2.55744E+07 4.26240E+05  7104.0      296.00     0.81040    
         TOTAL TIME 4.28544E+07 7.14240E+05  11904.      496.00      1.3580    


end timestep


start timestep kper="2" kstp="149" mode="normal"

 UBDSV1 SAVING     FLOW-JA-FACE ON UNIT   1030 AT TIME STEP    149, STRESS PERIOD      2
 UBDSV1 SAVING  STORAGE-AQUEOUS ON UNIT   1030 AT TIME STEP    149, STRESS PERIOD      2
 UBDSV06 SAVING  SOURCE-SINK MIX IN MODEL SVA_TM_T         PACKAGE SVA_TM_T        CONNECTED TO MODEL SVA_TM_T         PACKAGE SSM              ON UNIT   1030 AT TIME STEP    149, STRESS PERIOD      2

 CONCENTRATION WILL BE SAVED ON UNIT 1031 AT END OF TIME STEP  149, STRESS PERIOD    2


  MASS BUDGET FOR ENTIRE MODEL AT END OF TIME STEP  149, STRESS PERIOD   2
  ---------------------------------------------------------------------------------------------------

     CUMULATIVE MASS      M       RATES FOR THIS TIME STEP      M/T          PACKAGE NAME    
     ------------------                 ------------------------                     ----------------

           IN:                                      IN:
           ---                                      ---
     STORAGE-AQUEOUS =       2.5566E-05       STORAGE-AQUEOUS =       3.6834E-13     MST                              
                 WEL =           0.0000                   WEL =           0.0000     SSM_WEL1                         
                 WEL =           0.2490                   WEL =       5.0000E-04     SSM_WEL2                         

            TOTAL IN =           0.2490              TOTAL IN =       5.0000E-04

          OUT:                                     OUT:
          ----                                     ----
     STORAGE-AQUEOUS =           0.1096       STORAGE-AQUEOUS =       1.2800E-04     MST                              
                 WEL =           0.1394                   WEL =       3.7201E-04     SSM_WEL1                         
                 WEL =           0.0000                   WEL =           0.0000     SSM_WEL2                         

           TOTAL OUT =           0.2490             TOTAL OUT =       5.0001E-04

            IN - OUT =      -2.7279E-06              IN - OUT =      -9.7222E-09

 PERCENT DISCREPANCY =          -0.00     PERCENT DISCREPANCY =          -0.00




         TIME SUMMARY AT END OF TIME STEP  149 IN STRESS PERIOD    2
                    SECONDS     MINUTES      HOURS       DAYS        YEARS
                    -----------------------------------------------------------
   TIME STEP LENGTH 1.72800E+05  2880.0      48.000      2.0000     5.47570E-03
 STRESS PERIOD TIME 2.57472E+07 4.29120E+05  7152.0      298.00     0.81588    
         TOTAL TIME 4.30272E+07 7.17120E+05  11952.      498.00      1.3634    


end timestep


start timestep kper="2" kstp="150" mode="normal"

 UBDSV1 SAVING     FLOW-JA-FACE ON UNIT   1030 AT TIME STEP    150, STRESS PERIOD      2
 UBDSV1 SAVING  STORAGE-AQUEOUS ON UNIT   1030 AT TIME STEP    150, STRESS PERIOD      2
 UBDSV06 SAVING  SOURCE-SINK MIX IN MODEL SVA_TM_T         PACKAGE SVA_TM_T        CONNECTED TO MODEL SVA_TM_T         PACKAGE SSM              ON UNIT   1030 AT TIME STEP    150, STRESS PERIOD      2

 CONCENTRATION WILL BE SAVED ON UNIT 1031 AT END OF TIME STEP  150, STRESS PERIOD    2


  MASS BUDGET FOR ENTIRE MODEL AT END OF TIME STEP  150, STRESS PERIOD   2
  ---------------------------------------------------------------------------------------------------

     CUMULATIVE MASS      M       RATES FOR THIS TIME STEP      M/T          PACKAGE NAME    
     ------------------                 ------------------------                     ----------------

           IN:                                      IN:
           ---                                      ---
     STORAGE-AQUEOUS =       2.5566E-05       STORAGE-AQUEOUS =       3.0303E-13     MST                              
                 WEL =           0.0000                   WEL =           0.0000     SSM_WEL1                         
                 WEL =           0.2500                   WEL =       5.0000E-04     SSM_WEL2                         

            TOTAL IN =           0.2500              TOTAL IN =       5.0000E-04

          OUT:                                     OUT:
          ----                                     ----
     STORAGE-AQUEOUS =           0.1099       STORAGE-AQUEOUS =       1.2731E-04     MST                              
                 WEL =           0.1402                   WEL =       3.7270E-04     SSM_WEL1                         
                 WEL =           0.0000                   WEL =           0.0000     SSM_WEL2                         

           TOTAL OUT =           0.2500             TOTAL OUT =       5.0001E-04

            IN - OUT =      -2.7474E-06              IN - OUT =      -9.7823E-09

 PERCENT DISCREPANCY =          -0.00     PERCENT DISCREPANCY =          -0.00




         TIME SUMMARY AT END OF TIME STEP  150 IN STRESS PERIOD    2
                    SECONDS     MINUTES      HOURS       DAYS        YEARS
                    -----------------------------------------------------------
   TIME STEP LENGTH 1.72800E+05  2880.0      48.000      2.0000     5.47570E-03
 STRESS PERIOD TIME 2.59200E+07 4.32000E+05  7200.0      300.00     0.82136    
         TOTAL TIME 4.32000E+07 7.20000E+05  12000.      500.00      1.3689    


end timestep


start timestep kper="2" kstp="151" mode="normal"

 UBDSV1 SAVING     FLOW-JA-FACE ON UNIT   1030 AT TIME STEP    151, STRESS PERIOD      2
 UBDSV1 SAVING  STORAGE-AQUEOUS ON UNIT   1030 AT TIME STEP    151, STRESS PERIOD      2
 UBDSV06 SAVING  SOURCE-SINK MIX IN MODEL SVA_TM_T         PACKAGE SVA_TM_T        CONNECTED TO MODEL SVA_TM_T         PACKAGE SSM              ON UNIT   1030 AT TIME STEP    151, STRESS PERIOD      2

 CONCENTRATION WILL BE SAVED ON UNIT 1031 AT END OF TIME STEP  151, STRESS PERIOD    2


  MASS BUDGET FOR ENTIRE MODEL AT END OF TIME STEP  151, STRESS PERIOD   2
  ---------------------------------------------------------------------------------------------------

     CUMULATIVE MASS      M       RATES FOR THIS TIME STEP      M/T          PACKAGE NAME    
     ------------------                 ------------------------                     ----------------

           IN:                                      IN:
           ---                                      ---
     STORAGE-AQUEOUS =       2.5566E-05       STORAGE-AQUEOUS =       2.3945E-13     MST                              
                 WEL =           0.0000                   WEL =           0.0000     SSM_WEL1                         
                 WEL =           0.2510                   WEL =       5.0000E-04     SSM_WEL2                         

            TOTAL IN =           0.2510              TOTAL IN =       5.0000E-04

          OUT:                                     OUT:
          ----                                     ----
     STORAGE-AQUEOUS =           0.1101       STORAGE-AQUEOUS =       1.2663E-04     MST                              
                 WEL =           0.1409                   WEL =       3.7338E-04     SSM_WEL1                         
                 WEL =           0.0000                   WEL =           0.0000     SSM_WEL2                         

           TOTAL OUT =           0.2510             TOTAL OUT =       5.0001E-04

            IN - OUT =      -2.7673E-06              IN - OUT =      -9.9140E-09

 PERCENT DISCREPANCY =          -0.00     PERCENT DISCREPANCY =          -0.00




         TIME SUMMARY AT END OF TIME STEP  151 IN STRESS PERIOD    2
                    SECONDS     MINUTES      HOURS       DAYS        YEARS
                    -----------------------------------------------------------
   TIME STEP LENGTH 1.72800E+05  2880.0      48.000      2.0000     5.47570E-03
 STRESS PERIOD TIME 2.60928E+07 4.34880E+05  7248.0      302.00     0.82683    
         TOTAL TIME 4.33728E+07 7.22880E+05  12048.      502.00      1.3744    


end timestep


start timestep kper="2" kstp="152" mode="normal"

 UBDSV1 SAVING     FLOW-JA-FACE ON UNIT   1030 AT TIME STEP    152, STRESS PERIOD      2
 UBDSV1 SAVING  STORAGE-AQUEOUS ON UNIT   1030 AT TIME STEP    152, STRESS PERIOD      2
 UBDSV06 SAVING  SOURCE-SINK MIX IN MODEL SVA_TM_T         PACKAGE SVA_TM_T        CONNECTED TO MODEL SVA_TM_T         PACKAGE SSM              ON UNIT   1030 AT TIME STEP    152, STRESS PERIOD      2

 CONCENTRATION WILL BE SAVED ON UNIT 1031 AT END OF TIME STEP  152, STRESS PERIOD    2


  MASS BUDGET FOR ENTIRE MODEL AT END OF TIME STEP  152, STRESS PERIOD   2
  ---------------------------------------------------------------------------------------------------

     CUMULATIVE MASS      M       RATES FOR THIS TIME STEP      M/T          PACKAGE NAME    
     ------------------                 ------------------------                     ----------------

           IN:                                      IN:
           ---                                      ---
     STORAGE-AQUEOUS =       2.5566E-05       STORAGE-AQUEOUS =       1.7926E-13     MST                              
                 WEL =           0.0000                   WEL =           0.0000     SSM_WEL1                         
                 WEL =           0.2520                   WEL =       5.0000E-04     SSM_WEL2                         

            TOTAL IN =           0.2520              TOTAL IN =       5.0000E-04

          OUT:                                     OUT:
          ----                                     ----
     STORAGE-AQUEOUS =           0.1104       STORAGE-AQUEOUS =       1.2595E-04     MST                              
                 WEL =           0.1417                   WEL =       3.7406E-04     SSM_WEL1                         
                 WEL =           0.0000                   WEL =           0.0000     SSM_WEL2                         

           TOTAL OUT =           0.2520             TOTAL OUT =       5.0001E-04

            IN - OUT =      -2.7877E-06              IN - OUT =      -1.0225E-08

 PERCENT DISCREPANCY =          -0.00     PERCENT DISCREPANCY =          -0.00




         TIME SUMMARY AT END OF TIME STEP  152 IN STRESS PERIOD    2
                    SECONDS     MINUTES      HOURS       DAYS        YEARS
                    -----------------------------------------------------------
   TIME STEP LENGTH 1.72800E+05  2880.0      48.000      2.0000     5.47570E-03
 STRESS PERIOD TIME 2.62656E+07 4.37760E+05  7296.0      304.00     0.83231    
         TOTAL TIME 4.35456E+07 7.25760E+05  12096.      504.00      1.3799    


end timestep


start timestep kper="2" kstp="153" mode="normal"

 UBDSV1 SAVING     FLOW-JA-FACE ON UNIT   1030 AT TIME STEP    153, STRESS PERIOD      2
 UBDSV1 SAVING  STORAGE-AQUEOUS ON UNIT   1030 AT TIME STEP    153, STRESS PERIOD      2
 UBDSV06 SAVING  SOURCE-SINK MIX IN MODEL SVA_TM_T         PACKAGE SVA_TM_T        CONNECTED TO MODEL SVA_TM_T         PACKAGE SSM              ON UNIT   1030 AT TIME STEP    153, STRESS PERIOD      2

 CONCENTRATION WILL BE SAVED ON UNIT 1031 AT END OF TIME STEP  153, STRESS PERIOD    2


  MASS BUDGET FOR ENTIRE MODEL AT END OF TIME STEP  153, STRESS PERIOD   2
  ---------------------------------------------------------------------------------------------------

     CUMULATIVE MASS      M       RATES FOR THIS TIME STEP      M/T          PACKAGE NAME    
     ------------------                 ------------------------                     ----------------

           IN:                                      IN:
           ---                                      ---
     STORAGE-AQUEOUS =       2.5566E-05       STORAGE-AQUEOUS =       1.2194E-13     MST                              
                 WEL =           0.0000                   WEL =           0.0000     SSM_WEL1                         
                 WEL =           0.2530                   WEL =       5.0000E-04     SSM_WEL2                         

            TOTAL IN =           0.2530              TOTAL IN =       5.0000E-04

          OUT:                                     OUT:
          ----                                     ----
     STORAGE-AQUEOUS =           0.1106       STORAGE-AQUEOUS =       1.2528E-04     MST                              
                 WEL =           0.1424                   WEL =       3.7473E-04     SSM_WEL1                         
                 WEL =           0.0000                   WEL =           0.0000     SSM_WEL2                         

           TOTAL OUT =           0.2530             TOTAL OUT =       5.0001E-04

            IN - OUT =      -2.8082E-06              IN - OUT =      -1.0251E-08

 PERCENT DISCREPANCY =          -0.00     PERCENT DISCREPANCY =          -0.00




         TIME SUMMARY AT END OF TIME STEP  153 IN STRESS PERIOD    2
                    SECONDS     MINUTES      HOURS       DAYS        YEARS
                    -----------------------------------------------------------
   TIME STEP LENGTH 1.72800E+05  2880.0      48.000      2.0000     5.47570E-03
 STRESS PERIOD TIME 2.64384E+07 4.40640E+05  7344.0      306.00     0.83778    
         TOTAL TIME 4.37184E+07 7.28640E+05  12144.      506.00      1.3854    


end timestep


start timestep kper="2" kstp="154" mode="normal"

 UBDSV1 SAVING     FLOW-JA-FACE ON UNIT   1030 AT TIME STEP    154, STRESS PERIOD      2
 UBDSV1 SAVING  STORAGE-AQUEOUS ON UNIT   1030 AT TIME STEP    154, STRESS PERIOD      2
 UBDSV06 SAVING  SOURCE-SINK MIX IN MODEL SVA_TM_T         PACKAGE SVA_TM_T        CONNECTED TO MODEL SVA_TM_T         PACKAGE SSM              ON UNIT   1030 AT TIME STEP    154, STRESS PERIOD      2

 CONCENTRATION WILL BE SAVED ON UNIT 1031 AT END OF TIME STEP  154, STRESS PERIOD    2


  MASS BUDGET FOR ENTIRE MODEL AT END OF TIME STEP  154, STRESS PERIOD   2
  ---------------------------------------------------------------------------------------------------

     CUMULATIVE MASS      M       RATES FOR THIS TIME STEP      M/T          PACKAGE NAME    
     ------------------                 ------------------------                     ----------------

           IN:                                      IN:
           ---                                      ---
     STORAGE-AQUEOUS =       2.5566E-05       STORAGE-AQUEOUS =       6.6354E-14     MST                              
                 WEL =           0.0000                   WEL =           0.0000     SSM_WEL1                         
                 WEL =           0.2540                   WEL =       5.0000E-04     SSM_WEL2                         

            TOTAL IN =           0.2540              TOTAL IN =       5.0000E-04

          OUT:                                     OUT:
          ----                                     ----
     STORAGE-AQUEOUS =           0.1109       STORAGE-AQUEOUS =       1.2461E-04     MST                              
                 WEL =           0.1432                   WEL =       3.7540E-04     SSM_WEL1                         
                 WEL =           0.0000                   WEL =           0.0000     SSM_WEL2                         

           TOTAL OUT =           0.2540             TOTAL OUT =       5.0001E-04

            IN - OUT =      -2.8287E-06              IN - OUT =      -1.0253E-08

 PERCENT DISCREPANCY =          -0.00     PERCENT DISCREPANCY =          -0.00




         TIME SUMMARY AT END OF TIME STEP  154 IN STRESS PERIOD    2
                    SECONDS     MINUTES      HOURS       DAYS        YEARS
                    -----------------------------------------------------------
   TIME STEP LENGTH 1.72800E+05  2880.0      48.000      2.0000     5.47570E-03
 STRESS PERIOD TIME 2.66112E+07 4.43520E+05  7392.0      308.00     0.84326    
         TOTAL TIME 4.38912E+07 7.31520E+05  12192.      508.00      1.3908    


end timestep


start timestep kper="2" kstp="155" mode="normal"

 UBDSV1 SAVING     FLOW-JA-FACE ON UNIT   1030 AT TIME STEP    155, STRESS PERIOD      2
 UBDSV1 SAVING  STORAGE-AQUEOUS ON UNIT   1030 AT TIME STEP    155, STRESS PERIOD      2
 UBDSV06 SAVING  SOURCE-SINK MIX IN MODEL SVA_TM_T         PACKAGE SVA_TM_T        CONNECTED TO MODEL SVA_TM_T         PACKAGE SSM              ON UNIT   1030 AT TIME STEP    155, STRESS PERIOD      2

 CONCENTRATION WILL BE SAVED ON UNIT 1031 AT END OF TIME STEP  155, STRESS PERIOD    2


  MASS BUDGET FOR ENTIRE MODEL AT END OF TIME STEP  155, STRESS PERIOD   2
  ---------------------------------------------------------------------------------------------------

     CUMULATIVE MASS      M       RATES FOR THIS TIME STEP      M/T          PACKAGE NAME    
     ------------------                 ------------------------                     ----------------

           IN:                                      IN:
           ---                                      ---
     STORAGE-AQUEOUS =       2.5566E-05       STORAGE-AQUEOUS =       2.3830E-14     MST                              
                 WEL =           0.0000                   WEL =           0.0000     SSM_WEL1                         
                 WEL =           0.2550                   WEL =       5.0000E-04     SSM_WEL2                         

            TOTAL IN =           0.2550              TOTAL IN =       5.0000E-04

          OUT:                                     OUT:
          ----                                     ----
     STORAGE-AQUEOUS =           0.1111       STORAGE-AQUEOUS =       1.2395E-04     MST                              
                 WEL =           0.1439                   WEL =       3.7606E-04     SSM_WEL1                         
                 WEL =           0.0000                   WEL =           0.0000     SSM_WEL2                         

           TOTAL OUT =           0.2550             TOTAL OUT =       5.0001E-04

            IN - OUT =      -2.8492E-06              IN - OUT =      -1.0256E-08

 PERCENT DISCREPANCY =          -0.00     PERCENT DISCREPANCY =          -0.00




         TIME SUMMARY AT END OF TIME STEP  155 IN STRESS PERIOD    2
                    SECONDS     MINUTES      HOURS       DAYS        YEARS
                    -----------------------------------------------------------
   TIME STEP LENGTH 1.72800E+05  2880.0      48.000      2.0000     5.47570E-03
 STRESS PERIOD TIME 2.67840E+07 4.46400E+05  7440.0      310.00     0.84873    
         TOTAL TIME 4.40640E+07 7.34400E+05  12240.      510.00      1.3963    


end timestep


start timestep kper="2" kstp="156" mode="normal"

 UBDSV1 SAVING     FLOW-JA-FACE ON UNIT   1030 AT TIME STEP    156, STRESS PERIOD      2
 UBDSV1 SAVING  STORAGE-AQUEOUS ON UNIT   1030 AT TIME STEP    156, STRESS PERIOD      2
 UBDSV06 SAVING  SOURCE-SINK MIX IN MODEL SVA_TM_T         PACKAGE SVA_TM_T        CONNECTED TO MODEL SVA_TM_T         PACKAGE SSM              ON UNIT   1030 AT TIME STEP    156, STRESS PERIOD      2

 CONCENTRATION WILL BE SAVED ON UNIT 1031 AT END OF TIME STEP  156, STRESS PERIOD    2


  MASS BUDGET FOR ENTIRE MODEL AT END OF TIME STEP  156, STRESS PERIOD   2
  ---------------------------------------------------------------------------------------------------

     CUMULATIVE MASS      M       RATES FOR THIS TIME STEP      M/T          PACKAGE NAME    
     ------------------                 ------------------------                     ----------------

           IN:                                      IN:
           ---                                      ---
     STORAGE-AQUEOUS =       2.5566E-05       STORAGE-AQUEOUS =       8.7286E-15     MST                              
                 WEL =           0.0000                   WEL =           0.0000     SSM_WEL1                         
                 WEL =           0.2560                   WEL =       5.0000E-04     SSM_WEL2                         

            TOTAL IN =           0.2560              TOTAL IN =       5.0000E-04

          OUT:                                     OUT:
          ----                                     ----
     STORAGE-AQUEOUS =           0.1114       STORAGE-AQUEOUS =       1.2329E-04     MST                              
                 WEL =           0.1447                   WEL =       3.7672E-04     SSM_WEL1                         
                 WEL =           0.0000                   WEL =           0.0000     SSM_WEL2                         

           TOTAL OUT =           0.2560             TOTAL OUT =       5.0001E-04

            IN - OUT =      -2.8697E-06              IN - OUT =      -1.0247E-08

 PERCENT DISCREPANCY =          -0.00     PERCENT DISCREPANCY =          -0.00




         TIME SUMMARY AT END OF TIME STEP  156 IN STRESS PERIOD    2
                    SECONDS     MINUTES      HOURS       DAYS        YEARS
                    -----------------------------------------------------------
   TIME STEP LENGTH 1.72800E+05  2880.0      48.000      2.0000     5.47570E-03
 STRESS PERIOD TIME 2.69568E+07 4.49280E+05  7488.0      312.00     0.85421    
         TOTAL TIME 4.42368E+07 7.37280E+05  12288.      512.00      1.4018    


end timestep


start timestep kper="2" kstp="157" mode="normal"

 UBDSV1 SAVING     FLOW-JA-FACE ON UNIT   1030 AT TIME STEP    157, STRESS PERIOD      2
 UBDSV1 SAVING  STORAGE-AQUEOUS ON UNIT   1030 AT TIME STEP    157, STRESS PERIOD      2
 UBDSV06 SAVING  SOURCE-SINK MIX IN MODEL SVA_TM_T         PACKAGE SVA_TM_T        CONNECTED TO MODEL SVA_TM_T         PACKAGE SSM              ON UNIT   1030 AT TIME STEP    157, STRESS PERIOD      2

 CONCENTRATION WILL BE SAVED ON UNIT 1031 AT END OF TIME STEP  157, STRESS PERIOD    2


  MASS BUDGET FOR ENTIRE MODEL AT END OF TIME STEP  157, STRESS PERIOD   2
  ---------------------------------------------------------------------------------------------------

     CUMULATIVE MASS      M       RATES FOR THIS TIME STEP      M/T          PACKAGE NAME    
     ------------------                 ------------------------                     ----------------

           IN:                                      IN:
           ---                                      ---
     STORAGE-AQUEOUS =       2.5566E-05       STORAGE-AQUEOUS =       8.6228E-15     MST                              
                 WEL =           0.0000                   WEL =           0.0000     SSM_WEL1                         
                 WEL =           0.2570                   WEL =       5.0000E-04     SSM_WEL2                         

            TOTAL IN =           0.2570              TOTAL IN =       5.0000E-04

          OUT:                                     OUT:
          ----                                     ----
     STORAGE-AQUEOUS =           0.1116       STORAGE-AQUEOUS =       1.2264E-04     MST                              
                 WEL =           0.1454                   WEL =       3.7737E-04     SSM_WEL1                         
                 WEL =           0.0000                   WEL =           0.0000     SSM_WEL2                         

           TOTAL OUT =           0.2570             TOTAL OUT =       5.0001E-04

            IN - OUT =      -2.8903E-06              IN - OUT =      -1.0295E-08

 PERCENT DISCREPANCY =          -0.00     PERCENT DISCREPANCY =          -0.00




         TIME SUMMARY AT END OF TIME STEP  157 IN STRESS PERIOD    2
                    SECONDS     MINUTES      HOURS       DAYS        YEARS
                    -----------------------------------------------------------
   TIME STEP LENGTH 1.72800E+05  2880.0      48.000      2.0000     5.47570E-03
 STRESS PERIOD TIME 2.71296E+07 4.52160E+05  7536.0      314.00     0.85969    
         TOTAL TIME 4.44096E+07 7.40160E+05  12336.      514.00      1.4073    


end timestep


start timestep kper="2" kstp="158" mode="normal"

 UBDSV1 SAVING     FLOW-JA-FACE ON UNIT   1030 AT TIME STEP    158, STRESS PERIOD      2
 UBDSV1 SAVING  STORAGE-AQUEOUS ON UNIT   1030 AT TIME STEP    158, STRESS PERIOD      2
 UBDSV06 SAVING  SOURCE-SINK MIX IN MODEL SVA_TM_T         PACKAGE SVA_TM_T        CONNECTED TO MODEL SVA_TM_T         PACKAGE SSM              ON UNIT   1030 AT TIME STEP    158, STRESS PERIOD      2

 CONCENTRATION WILL BE SAVED ON UNIT 1031 AT END OF TIME STEP  158, STRESS PERIOD    2


  MASS BUDGET FOR ENTIRE MODEL AT END OF TIME STEP  158, STRESS PERIOD   2
  ---------------------------------------------------------------------------------------------------

     CUMULATIVE MASS      M       RATES FOR THIS TIME STEP      M/T          PACKAGE NAME    
     ------------------                 ------------------------                     ----------------

           IN:                                      IN:
           ---                                      ---
     STORAGE-AQUEOUS =       2.5566E-05       STORAGE-AQUEOUS =       1.0639E-14     MST                              
                 WEL =           0.0000                   WEL =           0.0000     SSM_WEL1                         
                 WEL =           0.2580                   WEL =       5.0000E-04     SSM_WEL2                         

            TOTAL IN =           0.2580              TOTAL IN =       5.0000E-04

          OUT:                                     OUT:
          ----                                     ----
     STORAGE-AQUEOUS =           0.1119       STORAGE-AQUEOUS =       1.2199E-04     MST                              
                 WEL =           0.1462                   WEL =       3.7802E-04     SSM_WEL1                         
                 WEL =           0.0000                   WEL =           0.0000     SSM_WEL2                         

           TOTAL OUT =           0.2580             TOTAL OUT =       5.0001E-04

            IN - OUT =      -2.9111E-06              IN - OUT =      -1.0365E-08

 PERCENT DISCREPANCY =          -0.00     PERCENT DISCREPANCY =          -0.00




         TIME SUMMARY AT END OF TIME STEP  158 IN STRESS PERIOD    2
                    SECONDS     MINUTES      HOURS       DAYS        YEARS
                    -----------------------------------------------------------
   TIME STEP LENGTH 1.72800E+05  2880.0      48.000      2.0000     5.47570E-03
 STRESS PERIOD TIME 2.73024E+07 4.55040E+05  7584.0      316.00     0.86516    
         TOTAL TIME 4.45824E+07 7.43040E+05  12384.      516.00      1.4127    


end timestep


start timestep kper="2" kstp="159" mode="normal"

 UBDSV1 SAVING     FLOW-JA-FACE ON UNIT   1030 AT TIME STEP    159, STRESS PERIOD      2
 UBDSV1 SAVING  STORAGE-AQUEOUS ON UNIT   1030 AT TIME STEP    159, STRESS PERIOD      2
 UBDSV06 SAVING  SOURCE-SINK MIX IN MODEL SVA_TM_T         PACKAGE SVA_TM_T        CONNECTED TO MODEL SVA_TM_T         PACKAGE SSM              ON UNIT   1030 AT TIME STEP    159, STRESS PERIOD      2

 CONCENTRATION WILL BE SAVED ON UNIT 1031 AT END OF TIME STEP  159, STRESS PERIOD    2


  MASS BUDGET FOR ENTIRE MODEL AT END OF TIME STEP  159, STRESS PERIOD   2
  ---------------------------------------------------------------------------------------------------

     CUMULATIVE MASS      M       RATES FOR THIS TIME STEP      M/T          PACKAGE NAME    
     ------------------                 ------------------------                     ----------------

           IN:                                      IN:
           ---                                      ---
     STORAGE-AQUEOUS =       2.5566E-05       STORAGE-AQUEOUS =       1.1257E-14     MST                              
                 WEL =           0.0000                   WEL =           0.0000     SSM_WEL1                         
                 WEL =           0.2590                   WEL =       5.0000E-04     SSM_WEL2                         

            TOTAL IN =           0.2590              TOTAL IN =       5.0000E-04

          OUT:                                     OUT:
          ----                                     ----
     STORAGE-AQUEOUS =           0.1121       STORAGE-AQUEOUS =       1.2135E-04     MST                              
                 WEL =           0.1469                   WEL =       3.7866E-04     SSM_WEL1                         
                 WEL =           0.0000                   WEL =           0.0000     SSM_WEL2                         

           TOTAL OUT =           0.2590             TOTAL OUT =       5.0001E-04

            IN - OUT =      -2.9317E-06              IN - OUT =      -1.0332E-08

 PERCENT DISCREPANCY =          -0.00     PERCENT DISCREPANCY =          -0.00




         TIME SUMMARY AT END OF TIME STEP  159 IN STRESS PERIOD    2
                    SECONDS     MINUTES      HOURS       DAYS        YEARS
                    -----------------------------------------------------------
   TIME STEP LENGTH 1.72800E+05  2880.0      48.000      2.0000     5.47570E-03
 STRESS PERIOD TIME 2.74752E+07 4.57920E+05  7632.0      318.00     0.87064    
         TOTAL TIME 4.47552E+07 7.45920E+05  12432.      518.00      1.4182    


end timestep


start timestep kper="2" kstp="160" mode="normal"

 UBDSV1 SAVING     FLOW-JA-FACE ON UNIT   1030 AT TIME STEP    160, STRESS PERIOD      2
 UBDSV1 SAVING  STORAGE-AQUEOUS ON UNIT   1030 AT TIME STEP    160, STRESS PERIOD      2
 UBDSV06 SAVING  SOURCE-SINK MIX IN MODEL SVA_TM_T         PACKAGE SVA_TM_T        CONNECTED TO MODEL SVA_TM_T         PACKAGE SSM              ON UNIT   1030 AT TIME STEP    160, STRESS PERIOD      2

 CONCENTRATION WILL BE SAVED ON UNIT 1031 AT END OF TIME STEP  160, STRESS PERIOD    2


  MASS BUDGET FOR ENTIRE MODEL AT END OF TIME STEP  160, STRESS PERIOD   2
  ---------------------------------------------------------------------------------------------------

     CUMULATIVE MASS      M       RATES FOR THIS TIME STEP      M/T          PACKAGE NAME    
     ------------------                 ------------------------                     ----------------

           IN:                                      IN:
           ---                                      ---
     STORAGE-AQUEOUS =       2.5566E-05       STORAGE-AQUEOUS =       1.0608E-14     MST                              
                 WEL =           0.0000                   WEL =           0.0000     SSM_WEL1                         
                 WEL =           0.2600                   WEL =       5.0000E-04     SSM_WEL2                         

            TOTAL IN =           0.2600              TOTAL IN =       5.0000E-04

          OUT:                                     OUT:
          ----                                     ----
     STORAGE-AQUEOUS =           0.1123       STORAGE-AQUEOUS =       1.2071E-04     MST                              
                 WEL =           0.1477                   WEL =       3.7930E-04     SSM_WEL1                         
                 WEL =           0.0000                   WEL =           0.0000     SSM_WEL2                         

           TOTAL OUT =           0.2600             TOTAL OUT =       5.0001E-04

            IN - OUT =      -2.9522E-06              IN - OUT =      -1.0216E-08

 PERCENT DISCREPANCY =          -0.00     PERCENT DISCREPANCY =          -0.00




         TIME SUMMARY AT END OF TIME STEP  160 IN STRESS PERIOD    2
                    SECONDS     MINUTES      HOURS       DAYS        YEARS
                    -----------------------------------------------------------
   TIME STEP LENGTH 1.72800E+05  2880.0      48.000      2.0000     5.47570E-03
 STRESS PERIOD TIME 2.76480E+07 4.60800E+05  7680.0      320.00     0.87611    
         TOTAL TIME 4.49280E+07 7.48800E+05  12480.      520.00      1.4237    


end timestep


start timestep kper="2" kstp="161" mode="normal"

 UBDSV1 SAVING     FLOW-JA-FACE ON UNIT   1030 AT TIME STEP    161, STRESS PERIOD      2
 UBDSV1 SAVING  STORAGE-AQUEOUS ON UNIT   1030 AT TIME STEP    161, STRESS PERIOD      2
 UBDSV06 SAVING  SOURCE-SINK MIX IN MODEL SVA_TM_T         PACKAGE SVA_TM_T        CONNECTED TO MODEL SVA_TM_T         PACKAGE SSM              ON UNIT   1030 AT TIME STEP    161, STRESS PERIOD      2

 CONCENTRATION WILL BE SAVED ON UNIT 1031 AT END OF TIME STEP  161, STRESS PERIOD    2


  MASS BUDGET FOR ENTIRE MODEL AT END OF TIME STEP  161, STRESS PERIOD   2
  ---------------------------------------------------------------------------------------------------

     CUMULATIVE MASS      M       RATES FOR THIS TIME STEP      M/T          PACKAGE NAME    
     ------------------                 ------------------------                     ----------------

           IN:                                      IN:
           ---                                      ---
     STORAGE-AQUEOUS =       2.5566E-05       STORAGE-AQUEOUS =       9.4625E-15     MST                              
                 WEL =           0.0000                   WEL =           0.0000     SSM_WEL1                         
                 WEL =           0.2610                   WEL =       5.0000E-04     SSM_WEL2                         

            TOTAL IN =           0.2610              TOTAL IN =       5.0000E-04

          OUT:                                     OUT:
          ----                                     ----
     STORAGE-AQUEOUS =           0.1126       STORAGE-AQUEOUS =       1.2008E-04     MST                              
                 WEL =           0.1485                   WEL =       3.7993E-04     SSM_WEL1                         
                 WEL =           0.0000                   WEL =           0.0000     SSM_WEL2                         

           TOTAL OUT =           0.2610             TOTAL OUT =       5.0001E-04

            IN - OUT =      -2.9724E-06              IN - OUT =      -1.0131E-08

 PERCENT DISCREPANCY =          -0.00     PERCENT DISCREPANCY =          -0.00




         TIME SUMMARY AT END OF TIME STEP  161 IN STRESS PERIOD    2
                    SECONDS     MINUTES      HOURS       DAYS        YEARS
                    -----------------------------------------------------------
   TIME STEP LENGTH 1.72800E+05  2880.0      48.000      2.0000     5.47570E-03
 STRESS PERIOD TIME 2.78208E+07 4.63680E+05  7728.0      322.00     0.88159    
         TOTAL TIME 4.51008E+07 7.51680E+05  12528.      522.00      1.4292    


end timestep


start timestep kper="2" kstp="162" mode="normal"

 UBDSV1 SAVING     FLOW-JA-FACE ON UNIT   1030 AT TIME STEP    162, STRESS PERIOD      2
 UBDSV1 SAVING  STORAGE-AQUEOUS ON UNIT   1030 AT TIME STEP    162, STRESS PERIOD      2
 UBDSV06 SAVING  SOURCE-SINK MIX IN MODEL SVA_TM_T         PACKAGE SVA_TM_T        CONNECTED TO MODEL SVA_TM_T         PACKAGE SSM              ON UNIT   1030 AT TIME STEP    162, STRESS PERIOD      2

 CONCENTRATION WILL BE SAVED ON UNIT 1031 AT END OF TIME STEP  162, STRESS PERIOD    2


  MASS BUDGET FOR ENTIRE MODEL AT END OF TIME STEP  162, STRESS PERIOD   2
  ---------------------------------------------------------------------------------------------------

     CUMULATIVE MASS      M       RATES FOR THIS TIME STEP      M/T          PACKAGE NAME    
     ------------------                 ------------------------                     ----------------

           IN:                                      IN:
           ---                                      ---
     STORAGE-AQUEOUS =       2.5566E-05       STORAGE-AQUEOUS =       7.8846E-15     MST                              
                 WEL =           0.0000                   WEL =           0.0000     SSM_WEL1                         
                 WEL =           0.2620                   WEL =       5.0000E-04     SSM_WEL2                         

            TOTAL IN =           0.2620              TOTAL IN =       5.0000E-04

          OUT:                                     OUT:
          ----                                     ----
     STORAGE-AQUEOUS =           0.1128       STORAGE-AQUEOUS =       1.1945E-04     MST                              
                 WEL =           0.1492                   WEL =       3.8056E-04     SSM_WEL1                         
                 WEL =           0.0000                   WEL =           0.0000     SSM_WEL2                         

           TOTAL OUT =           0.2620             TOTAL OUT =       5.0001E-04

            IN - OUT =      -2.9925E-06              IN - OUT =      -1.0067E-08

 PERCENT DISCREPANCY =          -0.00     PERCENT DISCREPANCY =          -0.00




         TIME SUMMARY AT END OF TIME STEP  162 IN STRESS PERIOD    2
                    SECONDS     MINUTES      HOURS       DAYS        YEARS
                    -----------------------------------------------------------
   TIME STEP LENGTH 1.72800E+05  2880.0      48.000      2.0000     5.47570E-03
 STRESS PERIOD TIME 2.79936E+07 4.66560E+05  7776.0      324.00     0.88706    
         TOTAL TIME 4.52736E+07 7.54560E+05  12576.      524.00      1.4346    


end timestep


start timestep kper="2" kstp="163" mode="normal"

 UBDSV1 SAVING     FLOW-JA-FACE ON UNIT   1030 AT TIME STEP    163, STRESS PERIOD      2
 UBDSV1 SAVING  STORAGE-AQUEOUS ON UNIT   1030 AT TIME STEP    163, STRESS PERIOD      2
 UBDSV06 SAVING  SOURCE-SINK MIX IN MODEL SVA_TM_T         PACKAGE SVA_TM_T        CONNECTED TO MODEL SVA_TM_T         PACKAGE SSM              ON UNIT   1030 AT TIME STEP    163, STRESS PERIOD      2

 CONCENTRATION WILL BE SAVED ON UNIT 1031 AT END OF TIME STEP  163, STRESS PERIOD    2


  MASS BUDGET FOR ENTIRE MODEL AT END OF TIME STEP  163, STRESS PERIOD   2
  ---------------------------------------------------------------------------------------------------

     CUMULATIVE MASS      M       RATES FOR THIS TIME STEP      M/T          PACKAGE NAME    
     ------------------                 ------------------------                     ----------------

           IN:                                      IN:
           ---                                      ---
     STORAGE-AQUEOUS =       2.5566E-05       STORAGE-AQUEOUS =       6.0883E-15     MST                              
                 WEL =           0.0000                   WEL =           0.0000     SSM_WEL1                         
                 WEL =           0.2630                   WEL =       5.0000E-04     SSM_WEL2                         

            TOTAL IN =           0.2630              TOTAL IN =       5.0000E-04

          OUT:                                     OUT:
          ----                                     ----
     STORAGE-AQUEOUS =           0.1131       STORAGE-AQUEOUS =       1.1883E-04     MST                              
                 WEL =           0.1500                   WEL =       3.8118E-04     SSM_WEL1                         
                 WEL =           0.0000                   WEL =           0.0000     SSM_WEL2                         

           TOTAL OUT =           0.2630             TOTAL OUT =       5.0001E-04

            IN - OUT =      -3.0127E-06              IN - OUT =      -1.0072E-08

 PERCENT DISCREPANCY =          -0.00     PERCENT DISCREPANCY =          -0.00




         TIME SUMMARY AT END OF TIME STEP  163 IN STRESS PERIOD    2
                    SECONDS     MINUTES      HOURS       DAYS        YEARS
                    -----------------------------------------------------------
   TIME STEP LENGTH 1.72800E+05  2880.0      48.000      2.0000     5.47570E-03
 STRESS PERIOD TIME 2.81664E+07 4.69440E+05  7824.0      326.00     0.89254    
         TOTAL TIME 4.54464E+07 7.57440E+05  12624.      526.00      1.4401    


end timestep


start timestep kper="2" kstp="164" mode="normal"

 UBDSV1 SAVING     FLOW-JA-FACE ON UNIT   1030 AT TIME STEP    164, STRESS PERIOD      2
 UBDSV1 SAVING  STORAGE-AQUEOUS ON UNIT   1030 AT TIME STEP    164, STRESS PERIOD      2
 UBDSV06 SAVING  SOURCE-SINK MIX IN MODEL SVA_TM_T         PACKAGE SVA_TM_T        CONNECTED TO MODEL SVA_TM_T         PACKAGE SSM              ON UNIT   1030 AT TIME STEP    164, STRESS PERIOD      2

 CONCENTRATION WILL BE SAVED ON UNIT 1031 AT END OF TIME STEP  164, STRESS PERIOD    2


  MASS BUDGET FOR ENTIRE MODEL AT END OF TIME STEP  164, STRESS PERIOD   2
  ---------------------------------------------------------------------------------------------------

     CUMULATIVE MASS      M       RATES FOR THIS TIME STEP      M/T          PACKAGE NAME    
     ------------------                 ------------------------                     ----------------

           IN:                                      IN:
           ---                                      ---
     STORAGE-AQUEOUS =       2.5566E-05       STORAGE-AQUEOUS =       5.5517E-15     MST                              
                 WEL =           0.0000                   WEL =           0.0000     SSM_WEL1                         
                 WEL =           0.2640                   WEL =       5.0000E-04     SSM_WEL2                         

            TOTAL IN =           0.2640              TOTAL IN =       5.0000E-04

          OUT:                                     OUT:
          ----                                     ----
     STORAGE-AQUEOUS =           0.1133       STORAGE-AQUEOUS =       1.1822E-04     MST                              
                 WEL =           0.1507                   WEL =       3.8179E-04     SSM_WEL1                         
                 WEL =           0.0000                   WEL =           0.0000     SSM_WEL2                         

           TOTAL OUT =           0.2640             TOTAL OUT =       5.0001E-04

            IN - OUT =      -3.0327E-06              IN - OUT =      -1.0012E-08

 PERCENT DISCREPANCY =          -0.00     PERCENT DISCREPANCY =          -0.00




         TIME SUMMARY AT END OF TIME STEP  164 IN STRESS PERIOD    2
                    SECONDS     MINUTES      HOURS       DAYS        YEARS
                    -----------------------------------------------------------
   TIME STEP LENGTH 1.72800E+05  2880.0      48.000      2.0000     5.47570E-03
 STRESS PERIOD TIME 2.83392E+07 4.72320E+05  7872.0      328.00     0.89802    
         TOTAL TIME 4.56192E+07 7.60320E+05  12672.      528.00      1.4456    


end timestep


start timestep kper="2" kstp="165" mode="normal"

 UBDSV1 SAVING     FLOW-JA-FACE ON UNIT   1030 AT TIME STEP    165, STRESS PERIOD      2
 UBDSV1 SAVING  STORAGE-AQUEOUS ON UNIT   1030 AT TIME STEP    165, STRESS PERIOD      2
 UBDSV06 SAVING  SOURCE-SINK MIX IN MODEL SVA_TM_T         PACKAGE SVA_TM_T        CONNECTED TO MODEL SVA_TM_T         PACKAGE SSM              ON UNIT   1030 AT TIME STEP    165, STRESS PERIOD      2

 CONCENTRATION WILL BE SAVED ON UNIT 1031 AT END OF TIME STEP  165, STRESS PERIOD    2


  MASS BUDGET FOR ENTIRE MODEL AT END OF TIME STEP  165, STRESS PERIOD   2
  ---------------------------------------------------------------------------------------------------

     CUMULATIVE MASS      M       RATES FOR THIS TIME STEP      M/T          PACKAGE NAME    
     ------------------                 ------------------------                     ----------------

           IN:                                      IN:
           ---                                      ---
     STORAGE-AQUEOUS =       2.5566E-05       STORAGE-AQUEOUS =       5.2918E-15     MST                              
                 WEL =           0.0000                   WEL =           0.0000     SSM_WEL1                         
                 WEL =           0.2650                   WEL =       5.0000E-04     SSM_WEL2                         

            TOTAL IN =           0.2650              TOTAL IN =       5.0000E-04

          OUT:                                     OUT:
          ----                                     ----
     STORAGE-AQUEOUS =           0.1135       STORAGE-AQUEOUS =       1.1761E-04     MST                              
                 WEL =           0.1515                   WEL =       3.8240E-04     SSM_WEL1                         
                 WEL =           0.0000                   WEL =           0.0000     SSM_WEL2                         

           TOTAL OUT =           0.2650             TOTAL OUT =       5.0001E-04

            IN - OUT =      -3.0534E-06              IN - OUT =      -1.0334E-08

 PERCENT DISCREPANCY =          -0.00     PERCENT DISCREPANCY =          -0.00




         TIME SUMMARY AT END OF TIME STEP  165 IN STRESS PERIOD    2
                    SECONDS     MINUTES      HOURS       DAYS        YEARS
                    -----------------------------------------------------------
   TIME STEP LENGTH 1.72800E+05  2880.0      48.000      2.0000     5.47570E-03
 STRESS PERIOD TIME 2.85120E+07 4.75200E+05  7920.0      330.00     0.90349    
         TOTAL TIME 4.57920E+07 7.63200E+05  12720.      530.00      1.4511    


end timestep


start timestep kper="2" kstp="166" mode="normal"

 UBDSV1 SAVING     FLOW-JA-FACE ON UNIT   1030 AT TIME STEP    166, STRESS PERIOD      2
 UBDSV1 SAVING  STORAGE-AQUEOUS ON UNIT   1030 AT TIME STEP    166, STRESS PERIOD      2
 UBDSV06 SAVING  SOURCE-SINK MIX IN MODEL SVA_TM_T         PACKAGE SVA_TM_T        CONNECTED TO MODEL SVA_TM_T         PACKAGE SSM              ON UNIT   1030 AT TIME STEP    166, STRESS PERIOD      2

 CONCENTRATION WILL BE SAVED ON UNIT 1031 AT END OF TIME STEP  166, STRESS PERIOD    2


  MASS BUDGET FOR ENTIRE MODEL AT END OF TIME STEP  166, STRESS PERIOD   2
  ---------------------------------------------------------------------------------------------------

     CUMULATIVE MASS      M       RATES FOR THIS TIME STEP      M/T          PACKAGE NAME    
     ------------------                 ------------------------                     ----------------

           IN:                                      IN:
           ---                                      ---
     STORAGE-AQUEOUS =       2.5566E-05       STORAGE-AQUEOUS =       5.2070E-15     MST                              
                 WEL =           0.0000                   WEL =           0.0000     SSM_WEL1                         
                 WEL =           0.2660                   WEL =       5.0000E-04     SSM_WEL2                         

            TOTAL IN =           0.2660              TOTAL IN =       5.0000E-04

          OUT:                                     OUT:
          ----                                     ----
     STORAGE-AQUEOUS =           0.1138       STORAGE-AQUEOUS =       1.1700E-04     MST                              
                 WEL =           0.1523                   WEL =       3.8301E-04     SSM_WEL1                         
                 WEL =           0.0000                   WEL =           0.0000     SSM_WEL2                         

           TOTAL OUT =           0.2660             TOTAL OUT =       5.0001E-04

            IN - OUT =      -3.0739E-06              IN - OUT =      -1.0276E-08

 PERCENT DISCREPANCY =          -0.00     PERCENT DISCREPANCY =          -0.00




         TIME SUMMARY AT END OF TIME STEP  166 IN STRESS PERIOD    2
                    SECONDS     MINUTES      HOURS       DAYS        YEARS
                    -----------------------------------------------------------
   TIME STEP LENGTH 1.72800E+05  2880.0      48.000      2.0000     5.47570E-03
 STRESS PERIOD TIME 2.86848E+07 4.78080E+05  7968.0      332.00     0.90897    
         TOTAL TIME 4.59648E+07 7.66080E+05  12768.      532.00      1.4565    


end timestep


start timestep kper="2" kstp="167" mode="normal"

 UBDSV1 SAVING     FLOW-JA-FACE ON UNIT   1030 AT TIME STEP    167, STRESS PERIOD      2
 UBDSV1 SAVING  STORAGE-AQUEOUS ON UNIT   1030 AT TIME STEP    167, STRESS PERIOD      2
 UBDSV06 SAVING  SOURCE-SINK MIX IN MODEL SVA_TM_T         PACKAGE SVA_TM_T        CONNECTED TO MODEL SVA_TM_T         PACKAGE SSM              ON UNIT   1030 AT TIME STEP    167, STRESS PERIOD      2

 CONCENTRATION WILL BE SAVED ON UNIT 1031 AT END OF TIME STEP  167, STRESS PERIOD    2


  MASS BUDGET FOR ENTIRE MODEL AT END OF TIME STEP  167, STRESS PERIOD   2
  ---------------------------------------------------------------------------------------------------

     CUMULATIVE MASS      M       RATES FOR THIS TIME STEP      M/T          PACKAGE NAME    
     ------------------                 ------------------------                     ----------------

           IN:                                      IN:
           ---                                      ---
     STORAGE-AQUEOUS =       2.5566E-05       STORAGE-AQUEOUS =       5.1594E-15     MST                              
                 WEL =           0.0000                   WEL =           0.0000     SSM_WEL1                         
                 WEL =           0.2670                   WEL =       5.0000E-04     SSM_WEL2                         

            TOTAL IN =           0.2670              TOTAL IN =       5.0000E-04

          OUT:                                     OUT:
          ----                                     ----
     STORAGE-AQUEOUS =           0.1140       STORAGE-AQUEOUS =       1.1640E-04     MST                              
                 WEL =           0.1530                   WEL =       3.8361E-04     SSM_WEL1                         
                 WEL =           0.0000                   WEL =           0.0000     SSM_WEL2                         

           TOTAL OUT =           0.2670             TOTAL OUT =       5.0001E-04

            IN - OUT =      -3.0943E-06              IN - OUT =      -1.0190E-08

 PERCENT DISCREPANCY =          -0.00     PERCENT DISCREPANCY =          -0.00




         TIME SUMMARY AT END OF TIME STEP  167 IN STRESS PERIOD    2
                    SECONDS     MINUTES      HOURS       DAYS        YEARS
                    -----------------------------------------------------------
   TIME STEP LENGTH 1.72800E+05  2880.0      48.000      2.0000     5.47570E-03
 STRESS PERIOD TIME 2.88576E+07 4.80960E+05  8016.0      334.00     0.91444    
         TOTAL TIME 4.61376E+07 7.68960E+05  12816.      534.00      1.4620    


end timestep


start timestep kper="2" kstp="168" mode="normal"

 UBDSV1 SAVING     FLOW-JA-FACE ON UNIT   1030 AT TIME STEP    168, STRESS PERIOD      2
 UBDSV1 SAVING  STORAGE-AQUEOUS ON UNIT   1030 AT TIME STEP    168, STRESS PERIOD      2
 UBDSV06 SAVING  SOURCE-SINK MIX IN MODEL SVA_TM_T         PACKAGE SVA_TM_T        CONNECTED TO MODEL SVA_TM_T         PACKAGE SSM              ON UNIT   1030 AT TIME STEP    168, STRESS PERIOD      2

 CONCENTRATION WILL BE SAVED ON UNIT 1031 AT END OF TIME STEP  168, STRESS PERIOD    2


  MASS BUDGET FOR ENTIRE MODEL AT END OF TIME STEP  168, STRESS PERIOD   2
  ---------------------------------------------------------------------------------------------------

     CUMULATIVE MASS      M       RATES FOR THIS TIME STEP      M/T          PACKAGE NAME    
     ------------------                 ------------------------                     ----------------

           IN:                                      IN:
           ---                                      ---
     STORAGE-AQUEOUS =       2.5566E-05       STORAGE-AQUEOUS =       5.1083E-15     MST                              
                 WEL =           0.0000                   WEL =           0.0000     SSM_WEL1                         
                 WEL =           0.2680                   WEL =       5.0000E-04     SSM_WEL2                         

            TOTAL IN =           0.2680              TOTAL IN =       5.0000E-04

          OUT:                                     OUT:
          ----                                     ----
     STORAGE-AQUEOUS =           0.1142       STORAGE-AQUEOUS =       1.1581E-04     MST                              
                 WEL =           0.1538                   WEL =       3.8420E-04     SSM_WEL1                         
                 WEL =           0.0000                   WEL =           0.0000     SSM_WEL2                         

           TOTAL OUT =           0.2680             TOTAL OUT =       5.0001E-04

            IN - OUT =      -3.1146E-06              IN - OUT =      -1.0118E-08

 PERCENT DISCREPANCY =          -0.00     PERCENT DISCREPANCY =          -0.00




         TIME SUMMARY AT END OF TIME STEP  168 IN STRESS PERIOD    2
                    SECONDS     MINUTES      HOURS       DAYS        YEARS
                    -----------------------------------------------------------
   TIME STEP LENGTH 1.72800E+05  2880.0      48.000      2.0000     5.47570E-03
 STRESS PERIOD TIME 2.90304E+07 4.83840E+05  8064.0      336.00     0.91992    
         TOTAL TIME 4.63104E+07 7.71840E+05  12864.      536.00      1.4675    


end timestep


start timestep kper="2" kstp="169" mode="normal"

 UBDSV1 SAVING     FLOW-JA-FACE ON UNIT   1030 AT TIME STEP    169, STRESS PERIOD      2
 UBDSV1 SAVING  STORAGE-AQUEOUS ON UNIT   1030 AT TIME STEP    169, STRESS PERIOD      2
 UBDSV06 SAVING  SOURCE-SINK MIX IN MODEL SVA_TM_T         PACKAGE SVA_TM_T        CONNECTED TO MODEL SVA_TM_T         PACKAGE SSM              ON UNIT   1030 AT TIME STEP    169, STRESS PERIOD      2

 CONCENTRATION WILL BE SAVED ON UNIT 1031 AT END OF TIME STEP  169, STRESS PERIOD    2


  MASS BUDGET FOR ENTIRE MODEL AT END OF TIME STEP  169, STRESS PERIOD   2
  ---------------------------------------------------------------------------------------------------

     CUMULATIVE MASS      M       RATES FOR THIS TIME STEP      M/T          PACKAGE NAME    
     ------------------                 ------------------------                     ----------------

           IN:                                      IN:
           ---                                      ---
     STORAGE-AQUEOUS =       2.5566E-05       STORAGE-AQUEOUS =       5.0228E-15     MST                              
                 WEL =           0.0000                   WEL =           0.0000     SSM_WEL1                         
                 WEL =           0.2690                   WEL =       5.0000E-04     SSM_WEL2                         

            TOTAL IN =           0.2690              TOTAL IN =       5.0000E-04

          OUT:                                     OUT:
          ----                                     ----
     STORAGE-AQUEOUS =           0.1145       STORAGE-AQUEOUS =       1.1522E-04     MST                              
                 WEL =           0.1546                   WEL =       3.8479E-04     SSM_WEL1                         
                 WEL =           0.0000                   WEL =           0.0000     SSM_WEL2                         

           TOTAL OUT =           0.2690             TOTAL OUT =       5.0001E-04

            IN - OUT =      -3.1346E-06              IN - OUT =      -1.0046E-08

 PERCENT DISCREPANCY =          -0.00     PERCENT DISCREPANCY =          -0.00




         TIME SUMMARY AT END OF TIME STEP  169 IN STRESS PERIOD    2
                    SECONDS     MINUTES      HOURS       DAYS        YEARS
                    -----------------------------------------------------------
   TIME STEP LENGTH 1.72800E+05  2880.0      48.000      2.0000     5.47570E-03
 STRESS PERIOD TIME 2.92032E+07 4.86720E+05  8112.0      338.00     0.92539    
         TOTAL TIME 4.64832E+07 7.74720E+05  12912.      538.00      1.4730    


end timestep


start timestep kper="2" kstp="170" mode="normal"

 UBDSV1 SAVING     FLOW-JA-FACE ON UNIT   1030 AT TIME STEP    170, STRESS PERIOD      2
 UBDSV1 SAVING  STORAGE-AQUEOUS ON UNIT   1030 AT TIME STEP    170, STRESS PERIOD      2
 UBDSV06 SAVING  SOURCE-SINK MIX IN MODEL SVA_TM_T         PACKAGE SVA_TM_T        CONNECTED TO MODEL SVA_TM_T         PACKAGE SSM              ON UNIT   1030 AT TIME STEP    170, STRESS PERIOD      2

 CONCENTRATION WILL BE SAVED ON UNIT 1031 AT END OF TIME STEP  170, STRESS PERIOD    2


  MASS BUDGET FOR ENTIRE MODEL AT END OF TIME STEP  170, STRESS PERIOD   2
  ---------------------------------------------------------------------------------------------------

     CUMULATIVE MASS      M       RATES FOR THIS TIME STEP      M/T          PACKAGE NAME    
     ------------------                 ------------------------                     ----------------

           IN:                                      IN:
           ---                                      ---
     STORAGE-AQUEOUS =       2.5566E-05       STORAGE-AQUEOUS =       4.9315E-15     MST                              
                 WEL =           0.0000                   WEL =           0.0000     SSM_WEL1                         
                 WEL =           0.2700                   WEL =       5.0000E-04     SSM_WEL2                         

            TOTAL IN =           0.2700              TOTAL IN =       5.0000E-04

          OUT:                                     OUT:
          ----                                     ----
     STORAGE-AQUEOUS =           0.1147       STORAGE-AQUEOUS =       1.1463E-04     MST                              
                 WEL =           0.1553                   WEL =       3.8538E-04     SSM_WEL1                         
                 WEL =           0.0000                   WEL =           0.0000     SSM_WEL2                         

           TOTAL OUT =           0.2700             TOTAL OUT =       5.0001E-04

            IN - OUT =      -3.1557E-06              IN - OUT =      -1.0523E-08

 PERCENT DISCREPANCY =          -0.00     PERCENT DISCREPANCY =          -0.00




         TIME SUMMARY AT END OF TIME STEP  170 IN STRESS PERIOD    2
                    SECONDS     MINUTES      HOURS       DAYS        YEARS
                    -----------------------------------------------------------
   TIME STEP LENGTH 1.72800E+05  2880.0      48.000      2.0000     5.47570E-03
 STRESS PERIOD TIME 2.93760E+07 4.89600E+05  8160.0      340.00     0.93087    
         TOTAL TIME 4.66560E+07 7.77600E+05  12960.      540.00      1.4784    


end timestep


start timestep kper="2" kstp="171" mode="normal"

 UBDSV1 SAVING     FLOW-JA-FACE ON UNIT   1030 AT TIME STEP    171, STRESS PERIOD      2
 UBDSV1 SAVING  STORAGE-AQUEOUS ON UNIT   1030 AT TIME STEP    171, STRESS PERIOD      2
 UBDSV06 SAVING  SOURCE-SINK MIX IN MODEL SVA_TM_T         PACKAGE SVA_TM_T        CONNECTED TO MODEL SVA_TM_T         PACKAGE SSM              ON UNIT   1030 AT TIME STEP    171, STRESS PERIOD      2

 CONCENTRATION WILL BE SAVED ON UNIT 1031 AT END OF TIME STEP  171, STRESS PERIOD    2


  MASS BUDGET FOR ENTIRE MODEL AT END OF TIME STEP  171, STRESS PERIOD   2
  ---------------------------------------------------------------------------------------------------

     CUMULATIVE MASS      M       RATES FOR THIS TIME STEP      M/T          PACKAGE NAME    
     ------------------                 ------------------------                     ----------------

           IN:                                      IN:
           ---                                      ---
     STORAGE-AQUEOUS =       2.5566E-05       STORAGE-AQUEOUS =       4.9619E-15     MST                              
                 WEL =           0.0000                   WEL =           0.0000     SSM_WEL1                         
                 WEL =           0.2710                   WEL =       5.0000E-04     SSM_WEL2                         

            TOTAL IN =           0.2710              TOTAL IN =       5.0000E-04

          OUT:                                     OUT:
          ----                                     ----
     STORAGE-AQUEOUS =           0.1149       STORAGE-AQUEOUS =       1.1405E-04     MST                              
                 WEL =           0.1561                   WEL =       3.8596E-04     SSM_WEL1                         
                 WEL =           0.0000                   WEL =           0.0000     SSM_WEL2                         

           TOTAL OUT =           0.2710             TOTAL OUT =       5.0001E-04

            IN - OUT =      -3.1767E-06              IN - OUT =      -1.0508E-08

 PERCENT DISCREPANCY =          -0.00     PERCENT DISCREPANCY =          -0.00




         TIME SUMMARY AT END OF TIME STEP  171 IN STRESS PERIOD    2
                    SECONDS     MINUTES      HOURS       DAYS        YEARS
                    -----------------------------------------------------------
   TIME STEP LENGTH 1.72800E+05  2880.0      48.000      2.0000     5.47570E-03
 STRESS PERIOD TIME 2.95488E+07 4.92480E+05  8208.0      342.00     0.93634    
         TOTAL TIME 4.68288E+07 7.80480E+05  13008.      542.00      1.4839    


end timestep


start timestep kper="2" kstp="172" mode="normal"

 UBDSV1 SAVING     FLOW-JA-FACE ON UNIT   1030 AT TIME STEP    172, STRESS PERIOD      2
 UBDSV1 SAVING  STORAGE-AQUEOUS ON UNIT   1030 AT TIME STEP    172, STRESS PERIOD      2
 UBDSV06 SAVING  SOURCE-SINK MIX IN MODEL SVA_TM_T         PACKAGE SVA_TM_T        CONNECTED TO MODEL SVA_TM_T         PACKAGE SSM              ON UNIT   1030 AT TIME STEP    172, STRESS PERIOD      2

 CONCENTRATION WILL BE SAVED ON UNIT 1031 AT END OF TIME STEP  172, STRESS PERIOD    2


  MASS BUDGET FOR ENTIRE MODEL AT END OF TIME STEP  172, STRESS PERIOD   2
  ---------------------------------------------------------------------------------------------------

     CUMULATIVE MASS      M       RATES FOR THIS TIME STEP      M/T          PACKAGE NAME    
     ------------------                 ------------------------                     ----------------

           IN:                                      IN:
           ---                                      ---
     STORAGE-AQUEOUS =       2.5566E-05       STORAGE-AQUEOUS =       5.0415E-15     MST                              
                 WEL =           0.0000                   WEL =           0.0000     SSM_WEL1                         
                 WEL =           0.2720                   WEL =       5.0000E-04     SSM_WEL2                         

            TOTAL IN =           0.2720              TOTAL IN =       5.0000E-04

          OUT:                                     OUT:
          ----                                     ----
     STORAGE-AQUEOUS =           0.1151       STORAGE-AQUEOUS =       1.1348E-04     MST                              
                 WEL =           0.1569                   WEL =       3.8653E-04     SSM_WEL1                         
                 WEL =           0.0000                   WEL =           0.0000     SSM_WEL2                         

           TOTAL OUT =           0.2720             TOTAL OUT =       5.0001E-04

            IN - OUT =      -3.1976E-06              IN - OUT =      -1.0460E-08

 PERCENT DISCREPANCY =          -0.00     PERCENT DISCREPANCY =          -0.00




         TIME SUMMARY AT END OF TIME STEP  172 IN STRESS PERIOD    2
                    SECONDS     MINUTES      HOURS       DAYS        YEARS
                    -----------------------------------------------------------
   TIME STEP LENGTH 1.72800E+05  2880.0      48.000      2.0000     5.47570E-03
 STRESS PERIOD TIME 2.97216E+07 4.95360E+05  8256.0      344.00     0.94182    
         TOTAL TIME 4.70016E+07 7.83360E+05  13056.      544.00      1.4894    


end timestep


start timestep kper="2" kstp="173" mode="normal"

 UBDSV1 SAVING     FLOW-JA-FACE ON UNIT   1030 AT TIME STEP    173, STRESS PERIOD      2
 UBDSV1 SAVING  STORAGE-AQUEOUS ON UNIT   1030 AT TIME STEP    173, STRESS PERIOD      2
 UBDSV06 SAVING  SOURCE-SINK MIX IN MODEL SVA_TM_T         PACKAGE SVA_TM_T        CONNECTED TO MODEL SVA_TM_T         PACKAGE SSM              ON UNIT   1030 AT TIME STEP    173, STRESS PERIOD      2

 CONCENTRATION WILL BE SAVED ON UNIT 1031 AT END OF TIME STEP  173, STRESS PERIOD    2


  MASS BUDGET FOR ENTIRE MODEL AT END OF TIME STEP  173, STRESS PERIOD   2
  ---------------------------------------------------------------------------------------------------

     CUMULATIVE MASS      M       RATES FOR THIS TIME STEP      M/T          PACKAGE NAME    
     ------------------                 ------------------------                     ----------------

           IN:                                      IN:
           ---                                      ---
     STORAGE-AQUEOUS =       2.5566E-05       STORAGE-AQUEOUS =       4.9680E-15     MST                              
                 WEL =           0.0000                   WEL =           0.0000     SSM_WEL1                         
                 WEL =           0.2730                   WEL =       5.0000E-04     SSM_WEL2                         

            TOTAL IN =           0.2730              TOTAL IN =       5.0000E-04

          OUT:                                     OUT:
          ----                                     ----
     STORAGE-AQUEOUS =           0.1154       STORAGE-AQUEOUS =       1.1291E-04     MST                              
                 WEL =           0.1577                   WEL =       3.8710E-04     SSM_WEL1                         
                 WEL =           0.0000                   WEL =           0.0000     SSM_WEL2                         

           TOTAL OUT =           0.2730             TOTAL OUT =       5.0001E-04

            IN - OUT =      -3.2202E-06              IN - OUT =      -1.1279E-08

 PERCENT DISCREPANCY =          -0.00     PERCENT DISCREPANCY =          -0.00




         TIME SUMMARY AT END OF TIME STEP  173 IN STRESS PERIOD    2
                    SECONDS     MINUTES      HOURS       DAYS        YEARS
                    -----------------------------------------------------------
   TIME STEP LENGTH 1.72800E+05  2880.0      48.000      2.0000     5.47570E-03
 STRESS PERIOD TIME 2.98944E+07 4.98240E+05  8304.0      346.00     0.94730    
         TOTAL TIME 4.71744E+07 7.86240E+05  13104.      546.00      1.4949    


end timestep


start timestep kper="2" kstp="174" mode="normal"

 UBDSV1 SAVING     FLOW-JA-FACE ON UNIT   1030 AT TIME STEP    174, STRESS PERIOD      2
 UBDSV1 SAVING  STORAGE-AQUEOUS ON UNIT   1030 AT TIME STEP    174, STRESS PERIOD      2
 UBDSV06 SAVING  SOURCE-SINK MIX IN MODEL SVA_TM_T         PACKAGE SVA_TM_T        CONNECTED TO MODEL SVA_TM_T         PACKAGE SSM              ON UNIT   1030 AT TIME STEP    174, STRESS PERIOD      2

 CONCENTRATION WILL BE SAVED ON UNIT 1031 AT END OF TIME STEP  174, STRESS PERIOD    2


  MASS BUDGET FOR ENTIRE MODEL AT END OF TIME STEP  174, STRESS PERIOD   2
  ---------------------------------------------------------------------------------------------------

     CUMULATIVE MASS      M       RATES FOR THIS TIME STEP      M/T          PACKAGE NAME    
     ------------------                 ------------------------                     ----------------

           IN:                                      IN:
           ---                                      ---
     STORAGE-AQUEOUS =       2.5566E-05       STORAGE-AQUEOUS =       5.0116E-15     MST                              
                 WEL =           0.0000                   WEL =           0.0000     SSM_WEL1                         
                 WEL =           0.2740                   WEL =       5.0000E-04     SSM_WEL2                         

            TOTAL IN =           0.2740              TOTAL IN =       5.0000E-04

          OUT:                                     OUT:
          ----                                     ----
     STORAGE-AQUEOUS =           0.1156       STORAGE-AQUEOUS =       1.1234E-04     MST                              
                 WEL =           0.1584                   WEL =       3.8767E-04     SSM_WEL1                         
                 WEL =           0.0000                   WEL =           0.0000     SSM_WEL2                         

           TOTAL OUT =           0.2740             TOTAL OUT =       5.0001E-04

            IN - OUT =      -3.2428E-06              IN - OUT =      -1.1302E-08

 PERCENT DISCREPANCY =          -0.00     PERCENT DISCREPANCY =          -0.00




         TIME SUMMARY AT END OF TIME STEP  174 IN STRESS PERIOD    2
                    SECONDS     MINUTES      HOURS       DAYS        YEARS
                    -----------------------------------------------------------
   TIME STEP LENGTH 1.72800E+05  2880.0      48.000      2.0000     5.47570E-03
 STRESS PERIOD TIME 3.00672E+07 5.01120E+05  8352.0      348.00     0.95277    
         TOTAL TIME 4.73472E+07 7.89120E+05  13152.      548.00      1.5003    


end timestep


start timestep kper="2" kstp="175" mode="normal"

 UBDSV1 SAVING     FLOW-JA-FACE ON UNIT   1030 AT TIME STEP    175, STRESS PERIOD      2
 UBDSV1 SAVING  STORAGE-AQUEOUS ON UNIT   1030 AT TIME STEP    175, STRESS PERIOD      2
 UBDSV06 SAVING  SOURCE-SINK MIX IN MODEL SVA_TM_T         PACKAGE SVA_TM_T        CONNECTED TO MODEL SVA_TM_T         PACKAGE SSM              ON UNIT   1030 AT TIME STEP    175, STRESS PERIOD      2

 CONCENTRATION WILL BE SAVED ON UNIT 1031 AT END OF TIME STEP  175, STRESS PERIOD    2


  MASS BUDGET FOR ENTIRE MODEL AT END OF TIME STEP  175, STRESS PERIOD   2
  ---------------------------------------------------------------------------------------------------

     CUMULATIVE MASS      M       RATES FOR THIS TIME STEP      M/T          PACKAGE NAME    
     ------------------                 ------------------------                     ----------------

           IN:                                      IN:
           ---                                      ---
     STORAGE-AQUEOUS =       2.5566E-05       STORAGE-AQUEOUS =       4.9721E-15     MST                              
                 WEL =           0.0000                   WEL =           0.0000     SSM_WEL1                         
                 WEL =           0.2750                   WEL =       5.0000E-04     SSM_WEL2                         

            TOTAL IN =           0.2750              TOTAL IN =       5.0000E-04

          OUT:                                     OUT:
          ----                                     ----
     STORAGE-AQUEOUS =           0.1158       STORAGE-AQUEOUS =       1.1178E-04     MST                              
                 WEL =           0.1592                   WEL =       3.8823E-04     SSM_WEL1                         
                 WEL =           0.0000                   WEL =           0.0000     SSM_WEL2                         

           TOTAL OUT =           0.2750             TOTAL OUT =       5.0001E-04

            IN - OUT =      -3.2654E-06              IN - OUT =      -1.1318E-08

 PERCENT DISCREPANCY =          -0.00     PERCENT DISCREPANCY =          -0.00




         TIME SUMMARY AT END OF TIME STEP  175 IN STRESS PERIOD    2
                    SECONDS     MINUTES      HOURS       DAYS        YEARS
                    -----------------------------------------------------------
   TIME STEP LENGTH 1.72800E+05  2880.0      48.000      2.0000     5.47570E-03
 STRESS PERIOD TIME 3.02400E+07 5.04000E+05  8400.0      350.00     0.95825    
         TOTAL TIME 4.75200E+07 7.92000E+05  13200.      550.00      1.5058    


end timestep


start timestep kper="2" kstp="176" mode="normal"

 UBDSV1 SAVING     FLOW-JA-FACE ON UNIT   1030 AT TIME STEP    176, STRESS PERIOD      2
 UBDSV1 SAVING  STORAGE-AQUEOUS ON UNIT   1030 AT TIME STEP    176, STRESS PERIOD      2
 UBDSV06 SAVING  SOURCE-SINK MIX IN MODEL SVA_TM_T         PACKAGE SVA_TM_T        CONNECTED TO MODEL SVA_TM_T         PACKAGE SSM              ON UNIT   1030 AT TIME STEP    176, STRESS PERIOD      2

 CONCENTRATION WILL BE SAVED ON UNIT 1031 AT END OF TIME STEP  176, STRESS PERIOD    2


  MASS BUDGET FOR ENTIRE MODEL AT END OF TIME STEP  176, STRESS PERIOD   2
  ---------------------------------------------------------------------------------------------------

     CUMULATIVE MASS      M       RATES FOR THIS TIME STEP      M/T          PACKAGE NAME    
     ------------------                 ------------------------                     ----------------

           IN:                                      IN:
           ---                                      ---
     STORAGE-AQUEOUS =       2.5566E-05       STORAGE-AQUEOUS =       5.4135E-15     MST                              
                 WEL =           0.0000                   WEL =           0.0000     SSM_WEL1                         
                 WEL =           0.2760                   WEL =       5.0000E-04     SSM_WEL2                         

            TOTAL IN =           0.2760              TOTAL IN =       5.0000E-04

          OUT:                                     OUT:
          ----                                     ----
     STORAGE-AQUEOUS =           0.1160       STORAGE-AQUEOUS =       1.1123E-04     MST                              
                 WEL =           0.1600                   WEL =       3.8878E-04     SSM_WEL1                         
                 WEL =           0.0000                   WEL =           0.0000     SSM_WEL2                         

           TOTAL OUT =           0.2760             TOTAL OUT =       5.0001E-04

            IN - OUT =      -3.2881E-06              IN - OUT =      -1.1334E-08

 PERCENT DISCREPANCY =          -0.00     PERCENT DISCREPANCY =          -0.00




         TIME SUMMARY AT END OF TIME STEP  176 IN STRESS PERIOD    2
                    SECONDS     MINUTES      HOURS       DAYS        YEARS
                    -----------------------------------------------------------
   TIME STEP LENGTH 1.72800E+05  2880.0      48.000      2.0000     5.47570E-03
 STRESS PERIOD TIME 3.04128E+07 5.06880E+05  8448.0      352.00     0.96372    
         TOTAL TIME 4.76928E+07 7.94880E+05  13248.      552.00      1.5113    


end timestep


start timestep kper="2" kstp="177" mode="normal"

 UBDSV1 SAVING     FLOW-JA-FACE ON UNIT   1030 AT TIME STEP    177, STRESS PERIOD      2
 UBDSV1 SAVING  STORAGE-AQUEOUS ON UNIT   1030 AT TIME STEP    177, STRESS PERIOD      2
 UBDSV06 SAVING  SOURCE-SINK MIX IN MODEL SVA_TM_T         PACKAGE SVA_TM_T        CONNECTED TO MODEL SVA_TM_T         PACKAGE SSM              ON UNIT   1030 AT TIME STEP    177, STRESS PERIOD      2

 CONCENTRATION WILL BE SAVED ON UNIT 1031 AT END OF TIME STEP  177, STRESS PERIOD    2


  MASS BUDGET FOR ENTIRE MODEL AT END OF TIME STEP  177, STRESS PERIOD   2
  ---------------------------------------------------------------------------------------------------

     CUMULATIVE MASS      M       RATES FOR THIS TIME STEP      M/T          PACKAGE NAME    
     ------------------                 ------------------------                     ----------------

           IN:                                      IN:
           ---                                      ---
     STORAGE-AQUEOUS =       2.5566E-05       STORAGE-AQUEOUS =       6.1312E-15     MST                              
                 WEL =           0.0000                   WEL =           0.0000     SSM_WEL1                         
                 WEL =           0.2770                   WEL =       5.0000E-04     SSM_WEL2                         

            TOTAL IN =           0.2770              TOTAL IN =       5.0000E-04

          OUT:                                     OUT:
          ----                                     ----
     STORAGE-AQUEOUS =           0.1163       STORAGE-AQUEOUS =       1.1068E-04     MST                              
                 WEL =           0.1608                   WEL =       3.8934E-04     SSM_WEL1                         
                 WEL =           0.0000                   WEL =           0.0000     SSM_WEL2                         

           TOTAL OUT =           0.2770             TOTAL OUT =       5.0001E-04

            IN - OUT =      -3.3113E-06              IN - OUT =      -1.1586E-08

 PERCENT DISCREPANCY =          -0.00     PERCENT DISCREPANCY =          -0.00




         TIME SUMMARY AT END OF TIME STEP  177 IN STRESS PERIOD    2
                    SECONDS     MINUTES      HOURS       DAYS        YEARS
                    -----------------------------------------------------------
   TIME STEP LENGTH 1.72800E+05  2880.0      48.000      2.0000     5.47570E-03
 STRESS PERIOD TIME 3.05856E+07 5.09760E+05  8496.0      354.00     0.96920    
         TOTAL TIME 4.78656E+07 7.97760E+05  13296.      554.00      1.5168    


end timestep


start timestep kper="2" kstp="178" mode="normal"

 UBDSV1 SAVING     FLOW-JA-FACE ON UNIT   1030 AT TIME STEP    178, STRESS PERIOD      2
 UBDSV1 SAVING  STORAGE-AQUEOUS ON UNIT   1030 AT TIME STEP    178, STRESS PERIOD      2
 UBDSV06 SAVING  SOURCE-SINK MIX IN MODEL SVA_TM_T         PACKAGE SVA_TM_T        CONNECTED TO MODEL SVA_TM_T         PACKAGE SSM              ON UNIT   1030 AT TIME STEP    178, STRESS PERIOD      2

 CONCENTRATION WILL BE SAVED ON UNIT 1031 AT END OF TIME STEP  178, STRESS PERIOD    2


  MASS BUDGET FOR ENTIRE MODEL AT END OF TIME STEP  178, STRESS PERIOD   2
  ---------------------------------------------------------------------------------------------------

     CUMULATIVE MASS      M       RATES FOR THIS TIME STEP      M/T          PACKAGE NAME    
     ------------------                 ------------------------                     ----------------

           IN:                                      IN:
           ---                                      ---
     STORAGE-AQUEOUS =       2.5566E-05       STORAGE-AQUEOUS =       1.1702E-13     MST                              
                 WEL =           0.0000                   WEL =           0.0000     SSM_WEL1                         
                 WEL =           0.2780                   WEL =       5.0000E-04     SSM_WEL2                         

            TOTAL IN =           0.2780              TOTAL IN =       5.0000E-04

          OUT:                                     OUT:
          ----                                     ----
     STORAGE-AQUEOUS =           0.1165       STORAGE-AQUEOUS =       1.1013E-04     MST                              
                 WEL =           0.1616                   WEL =       3.8988E-04     SSM_WEL1                         
                 WEL =           0.0000                   WEL =           0.0000     SSM_WEL2                         

           TOTAL OUT =           0.2780             TOTAL OUT =       5.0001E-04

            IN - OUT =      -3.3346E-06              IN - OUT =      -1.1668E-08

 PERCENT DISCREPANCY =          -0.00     PERCENT DISCREPANCY =          -0.00




         TIME SUMMARY AT END OF TIME STEP  178 IN STRESS PERIOD    2
                    SECONDS     MINUTES      HOURS       DAYS        YEARS
                    -----------------------------------------------------------
   TIME STEP LENGTH 1.72800E+05  2880.0      48.000      2.0000     5.47570E-03
 STRESS PERIOD TIME 3.07584E+07 5.12640E+05  8544.0      356.00     0.97467    
         TOTAL TIME 4.80384E+07 8.00640E+05  13344.      556.00      1.5222    


end timestep


start timestep kper="2" kstp="179" mode="normal"

 UBDSV1 SAVING     FLOW-JA-FACE ON UNIT   1030 AT TIME STEP    179, STRESS PERIOD      2
 UBDSV1 SAVING  STORAGE-AQUEOUS ON UNIT   1030 AT TIME STEP    179, STRESS PERIOD      2
 UBDSV06 SAVING  SOURCE-SINK MIX IN MODEL SVA_TM_T         PACKAGE SVA_TM_T        CONNECTED TO MODEL SVA_TM_T         PACKAGE SSM              ON UNIT   1030 AT TIME STEP    179, STRESS PERIOD      2

 CONCENTRATION WILL BE SAVED ON UNIT 1031 AT END OF TIME STEP  179, STRESS PERIOD    2


  MASS BUDGET FOR ENTIRE MODEL AT END OF TIME STEP  179, STRESS PERIOD   2
  ---------------------------------------------------------------------------------------------------

     CUMULATIVE MASS      M       RATES FOR THIS TIME STEP      M/T          PACKAGE NAME    
     ------------------                 ------------------------                     ----------------

           IN:                                      IN:
           ---                                      ---
     STORAGE-AQUEOUS =       2.5566E-05       STORAGE-AQUEOUS =       3.0399E-13     MST                              
                 WEL =           0.0000                   WEL =           0.0000     SSM_WEL1                         
                 WEL =           0.2790                   WEL =       5.0000E-04     SSM_WEL2                         

            TOTAL IN =           0.2790              TOTAL IN =       5.0000E-04

          OUT:                                     OUT:
          ----                                     ----
     STORAGE-AQUEOUS =           0.1167       STORAGE-AQUEOUS =       1.0959E-04     MST                              
                 WEL =           0.1623                   WEL =       3.9042E-04     SSM_WEL1                         
                 WEL =           0.0000                   WEL =           0.0000     SSM_WEL2                         

           TOTAL OUT =           0.2790             TOTAL OUT =       5.0001E-04

            IN - OUT =      -3.3580E-06              IN - OUT =      -1.1683E-08

 PERCENT DISCREPANCY =          -0.00     PERCENT DISCREPANCY =          -0.00




         TIME SUMMARY AT END OF TIME STEP  179 IN STRESS PERIOD    2
                    SECONDS     MINUTES      HOURS       DAYS        YEARS
                    -----------------------------------------------------------
   TIME STEP LENGTH 1.72800E+05  2880.0      48.000      2.0000     5.47570E-03
 STRESS PERIOD TIME 3.09312E+07 5.15520E+05  8592.0      358.00     0.98015    
         TOTAL TIME 4.82112E+07 8.03520E+05  13392.      558.00      1.5277    


end timestep


start timestep kper="2" kstp="180" mode="normal"

 UBDSV1 SAVING     FLOW-JA-FACE ON UNIT   1030 AT TIME STEP    180, STRESS PERIOD      2
 UBDSV1 SAVING  STORAGE-AQUEOUS ON UNIT   1030 AT TIME STEP    180, STRESS PERIOD      2
 UBDSV06 SAVING  SOURCE-SINK MIX IN MODEL SVA_TM_T         PACKAGE SVA_TM_T        CONNECTED TO MODEL SVA_TM_T         PACKAGE SSM              ON UNIT   1030 AT TIME STEP    180, STRESS PERIOD      2

 CONCENTRATION WILL BE SAVED ON UNIT 1031 AT END OF TIME STEP  180, STRESS PERIOD    2


  MASS BUDGET FOR ENTIRE MODEL AT END OF TIME STEP  180, STRESS PERIOD   2
  ---------------------------------------------------------------------------------------------------

     CUMULATIVE MASS      M       RATES FOR THIS TIME STEP      M/T          PACKAGE NAME    
     ------------------                 ------------------------                     ----------------

           IN:                                      IN:
           ---                                      ---
     STORAGE-AQUEOUS =       2.5566E-05       STORAGE-AQUEOUS =       5.7750E-13     MST                              
                 WEL =           0.0000                   WEL =           0.0000     SSM_WEL1                         
                 WEL =           0.2800                   WEL =       5.0000E-04     SSM_WEL2                         

            TOTAL IN =           0.2800              TOTAL IN =       5.0000E-04

          OUT:                                     OUT:
          ----                                     ----
     STORAGE-AQUEOUS =           0.1169       STORAGE-AQUEOUS =       1.0905E-04     MST                              
                 WEL =           0.1631                   WEL =       3.9096E-04     SSM_WEL1                         
                 WEL =           0.0000                   WEL =           0.0000     SSM_WEL2                         

           TOTAL OUT =           0.2800             TOTAL OUT =       5.0001E-04

            IN - OUT =      -3.3813E-06              IN - OUT =      -1.1687E-08

 PERCENT DISCREPANCY =          -0.00     PERCENT DISCREPANCY =          -0.00




         TIME SUMMARY AT END OF TIME STEP  180 IN STRESS PERIOD    2
                    SECONDS     MINUTES      HOURS       DAYS        YEARS
                    -----------------------------------------------------------
   TIME STEP LENGTH 1.72800E+05  2880.0      48.000      2.0000     5.47570E-03
 STRESS PERIOD TIME 3.11040E+07 5.18400E+05  8640.0      360.00     0.98563    
         TOTAL TIME 4.83840E+07 8.06400E+05  13440.      560.00      1.5332    


end timestep


start timestep kper="2" kstp="181" mode="normal"

 UBDSV1 SAVING     FLOW-JA-FACE ON UNIT   1030 AT TIME STEP    181, STRESS PERIOD      2
 UBDSV1 SAVING  STORAGE-AQUEOUS ON UNIT   1030 AT TIME STEP    181, STRESS PERIOD      2
 UBDSV06 SAVING  SOURCE-SINK MIX IN MODEL SVA_TM_T         PACKAGE SVA_TM_T        CONNECTED TO MODEL SVA_TM_T         PACKAGE SSM              ON UNIT   1030 AT TIME STEP    181, STRESS PERIOD      2

 CONCENTRATION WILL BE SAVED ON UNIT 1031 AT END OF TIME STEP  181, STRESS PERIOD    2


  MASS BUDGET FOR ENTIRE MODEL AT END OF TIME STEP  181, STRESS PERIOD   2
  ---------------------------------------------------------------------------------------------------

     CUMULATIVE MASS      M       RATES FOR THIS TIME STEP      M/T          PACKAGE NAME    
     ------------------                 ------------------------                     ----------------

           IN:                                      IN:
           ---                                      ---
     STORAGE-AQUEOUS =       2.5566E-05       STORAGE-AQUEOUS =       9.6383E-13     MST                              
                 WEL =           0.0000                   WEL =           0.0000     SSM_WEL1                         
                 WEL =           0.2810                   WEL =       5.0000E-04     SSM_WEL2                         

            TOTAL IN =           0.2810              TOTAL IN =       5.0000E-04

          OUT:                                     OUT:
          ----                                     ----
     STORAGE-AQUEOUS =           0.1171       STORAGE-AQUEOUS =       1.0852E-04     MST                              
                 WEL =           0.1639                   WEL =       3.9149E-04     SSM_WEL1                         
                 WEL =           0.0000                   WEL =           0.0000     SSM_WEL2                         

           TOTAL OUT =           0.2810             TOTAL OUT =       5.0002E-04

            IN - OUT =      -3.4158E-06              IN - OUT =      -1.7242E-08

 PERCENT DISCREPANCY =          -0.00     PERCENT DISCREPANCY =          -0.00




         TIME SUMMARY AT END OF TIME STEP  181 IN STRESS PERIOD    2
                    SECONDS     MINUTES      HOURS       DAYS        YEARS
                    -----------------------------------------------------------
   TIME STEP LENGTH 1.72800E+05  2880.0      48.000      2.0000     5.47570E-03
 STRESS PERIOD TIME 3.12768E+07 5.21280E+05  8688.0      362.00     0.99110    
         TOTAL TIME 4.85568E+07 8.09280E+05  13488.      562.00      1.5387    


end timestep


start timestep kper="2" kstp="182" mode="normal"

 UBDSV1 SAVING     FLOW-JA-FACE ON UNIT   1030 AT TIME STEP    182, STRESS PERIOD      2
 UBDSV1 SAVING  STORAGE-AQUEOUS ON UNIT   1030 AT TIME STEP    182, STRESS PERIOD      2
 UBDSV06 SAVING  SOURCE-SINK MIX IN MODEL SVA_TM_T         PACKAGE SVA_TM_T        CONNECTED TO MODEL SVA_TM_T         PACKAGE SSM              ON UNIT   1030 AT TIME STEP    182, STRESS PERIOD      2

 CONCENTRATION WILL BE SAVED ON UNIT 1031 AT END OF TIME STEP  182, STRESS PERIOD    2


  MASS BUDGET FOR ENTIRE MODEL AT END OF TIME STEP  182, STRESS PERIOD   2
  ---------------------------------------------------------------------------------------------------

     CUMULATIVE MASS      M       RATES FOR THIS TIME STEP      M/T          PACKAGE NAME    
     ------------------                 ------------------------                     ----------------

           IN:                                      IN:
           ---                                      ---
     STORAGE-AQUEOUS =       2.5566E-05       STORAGE-AQUEOUS =       1.3164E-12     MST                              
                 WEL =           0.0000                   WEL =           0.0000     SSM_WEL1                         
                 WEL =           0.2820                   WEL =       5.0000E-04     SSM_WEL2                         

            TOTAL IN =           0.2820              TOTAL IN =       5.0000E-04

          OUT:                                     OUT:
          ----                                     ----
     STORAGE-AQUEOUS =           0.1173       STORAGE-AQUEOUS =       1.0799E-04     MST                              
                 WEL =           0.1647                   WEL =       3.9202E-04     SSM_WEL1                         
                 WEL =           0.0000                   WEL =           0.0000     SSM_WEL2                         

           TOTAL OUT =           0.2820             TOTAL OUT =       5.0002E-04

            IN - OUT =      -3.4500E-06              IN - OUT =      -1.7088E-08

 PERCENT DISCREPANCY =          -0.00     PERCENT DISCREPANCY =          -0.00




         TIME SUMMARY AT END OF TIME STEP  182 IN STRESS PERIOD    2
                    SECONDS     MINUTES      HOURS       DAYS        YEARS
                    -----------------------------------------------------------
   TIME STEP LENGTH 1.72800E+05  2880.0      48.000      2.0000     5.47570E-03
 STRESS PERIOD TIME 3.14496E+07 5.24160E+05  8736.0      364.00     0.99658    
         TOTAL TIME 4.87296E+07 8.12160E+05  13536.      564.00      1.5441    


end timestep


start timestep kper="2" kstp="183" mode="normal"

 UBDSV1 SAVING     FLOW-JA-FACE ON UNIT   1030 AT TIME STEP    183, STRESS PERIOD      2
 UBDSV1 SAVING  STORAGE-AQUEOUS ON UNIT   1030 AT TIME STEP    183, STRESS PERIOD      2
 UBDSV06 SAVING  SOURCE-SINK MIX IN MODEL SVA_TM_T         PACKAGE SVA_TM_T        CONNECTED TO MODEL SVA_TM_T         PACKAGE SSM              ON UNIT   1030 AT TIME STEP    183, STRESS PERIOD      2

 CONCENTRATION WILL BE SAVED ON UNIT 1031 AT END OF TIME STEP  183, STRESS PERIOD    2


  MASS BUDGET FOR ENTIRE MODEL AT END OF TIME STEP  183, STRESS PERIOD   2
  ---------------------------------------------------------------------------------------------------

     CUMULATIVE MASS      M       RATES FOR THIS TIME STEP      M/T          PACKAGE NAME    
     ------------------                 ------------------------                     ----------------

           IN:                                      IN:
           ---                                      ---
     STORAGE-AQUEOUS =       2.5566E-05       STORAGE-AQUEOUS =       1.4870E-12     MST                              
                 WEL =           0.0000                   WEL =           0.0000     SSM_WEL1                         
                 WEL =           0.2830                   WEL =       5.0000E-04     SSM_WEL2                         

            TOTAL IN =           0.2830              TOTAL IN =       5.0000E-04

          OUT:                                     OUT:
          ----                                     ----
     STORAGE-AQUEOUS =           0.1176       STORAGE-AQUEOUS =       1.0747E-04     MST                              
                 WEL =           0.1655                   WEL =       3.9254E-04     SSM_WEL1                         
                 WEL =           0.0000                   WEL =           0.0000     SSM_WEL2                         

           TOTAL OUT =           0.2830             TOTAL OUT =       5.0002E-04

            IN - OUT =      -3.4839E-06              IN - OUT =      -1.6935E-08

 PERCENT DISCREPANCY =          -0.00     PERCENT DISCREPANCY =          -0.00




         TIME SUMMARY AT END OF TIME STEP  183 IN STRESS PERIOD    2
                    SECONDS     MINUTES      HOURS       DAYS        YEARS
                    -----------------------------------------------------------
   TIME STEP LENGTH 1.72800E+05  2880.0      48.000      2.0000     5.47570E-03
 STRESS PERIOD TIME 3.16224E+07 5.27040E+05  8784.0      366.00      1.0021    
         TOTAL TIME 4.89024E+07 8.15040E+05  13584.      566.00      1.5496    


end timestep


start timestep kper="2" kstp="184" mode="normal"

 UBDSV1 SAVING     FLOW-JA-FACE ON UNIT   1030 AT TIME STEP    184, STRESS PERIOD      2
 UBDSV1 SAVING  STORAGE-AQUEOUS ON UNIT   1030 AT TIME STEP    184, STRESS PERIOD      2
 UBDSV06 SAVING  SOURCE-SINK MIX IN MODEL SVA_TM_T         PACKAGE SVA_TM_T        CONNECTED TO MODEL SVA_TM_T         PACKAGE SSM              ON UNIT   1030 AT TIME STEP    184, STRESS PERIOD      2

 CONCENTRATION WILL BE SAVED ON UNIT 1031 AT END OF TIME STEP  184, STRESS PERIOD    2


  MASS BUDGET FOR ENTIRE MODEL AT END OF TIME STEP  184, STRESS PERIOD   2
  ---------------------------------------------------------------------------------------------------

     CUMULATIVE MASS      M       RATES FOR THIS TIME STEP      M/T          PACKAGE NAME    
     ------------------                 ------------------------                     ----------------

           IN:                                      IN:
           ---                                      ---
     STORAGE-AQUEOUS =       2.5566E-05       STORAGE-AQUEOUS =       1.5580E-12     MST                              
                 WEL =           0.0000                   WEL =           0.0000     SSM_WEL1                         
                 WEL =           0.2840                   WEL =       5.0000E-04     SSM_WEL2                         

            TOTAL IN =           0.2840              TOTAL IN =       5.0000E-04

          OUT:                                     OUT:
          ----                                     ----
     STORAGE-AQUEOUS =           0.1178       STORAGE-AQUEOUS =       1.0695E-04     MST                              
                 WEL =           0.1663                   WEL =       3.9306E-04     SSM_WEL1                         
                 WEL =           0.0000                   WEL =           0.0000     SSM_WEL2                         

           TOTAL OUT =           0.2840             TOTAL OUT =       5.0002E-04

            IN - OUT =      -3.5174E-06              IN - OUT =      -1.6779E-08

 PERCENT DISCREPANCY =          -0.00     PERCENT DISCREPANCY =          -0.00




         TIME SUMMARY AT END OF TIME STEP  184 IN STRESS PERIOD    2
                    SECONDS     MINUTES      HOURS       DAYS        YEARS
                    -----------------------------------------------------------
   TIME STEP LENGTH 1.72800E+05  2880.0      48.000      2.0000     5.47570E-03
 STRESS PERIOD TIME 3.17952E+07 5.29920E+05  8832.0      368.00      1.0075    
         TOTAL TIME 4.90752E+07 8.17920E+05  13632.      568.00      1.5551    


end timestep


start timestep kper="2" kstp="185" mode="normal"

 UBDSV1 SAVING     FLOW-JA-FACE ON UNIT   1030 AT TIME STEP    185, STRESS PERIOD      2
 UBDSV1 SAVING  STORAGE-AQUEOUS ON UNIT   1030 AT TIME STEP    185, STRESS PERIOD      2
 UBDSV06 SAVING  SOURCE-SINK MIX IN MODEL SVA_TM_T         PACKAGE SVA_TM_T        CONNECTED TO MODEL SVA_TM_T         PACKAGE SSM              ON UNIT   1030 AT TIME STEP    185, STRESS PERIOD      2

 CONCENTRATION WILL BE SAVED ON UNIT 1031 AT END OF TIME STEP  185, STRESS PERIOD    2


  MASS BUDGET FOR ENTIRE MODEL AT END OF TIME STEP  185, STRESS PERIOD   2
  ---------------------------------------------------------------------------------------------------

     CUMULATIVE MASS      M       RATES FOR THIS TIME STEP      M/T          PACKAGE NAME    
     ------------------                 ------------------------                     ----------------

           IN:                                      IN:
           ---                                      ---
     STORAGE-AQUEOUS =       2.5566E-05       STORAGE-AQUEOUS =       1.5503E-12     MST                              
                 WEL =           0.0000                   WEL =           0.0000     SSM_WEL1                         
                 WEL =           0.2850                   WEL =       5.0000E-04     SSM_WEL2                         

            TOTAL IN =           0.2850              TOTAL IN =       5.0000E-04

          OUT:                                     OUT:
          ----                                     ----
     STORAGE-AQUEOUS =           0.1180       STORAGE-AQUEOUS =       1.0644E-04     MST                              
                 WEL =           0.1670                   WEL =       3.9358E-04     SSM_WEL1                         
                 WEL =           0.0000                   WEL =           0.0000     SSM_WEL2                         

           TOTAL OUT =           0.2850             TOTAL OUT =       5.0002E-04

            IN - OUT =      -3.5507E-06              IN - OUT =      -1.6637E-08

 PERCENT DISCREPANCY =          -0.00     PERCENT DISCREPANCY =          -0.00




         TIME SUMMARY AT END OF TIME STEP  185 IN STRESS PERIOD    2
                    SECONDS     MINUTES      HOURS       DAYS        YEARS
                    -----------------------------------------------------------
   TIME STEP LENGTH 1.72800E+05  2880.0      48.000      2.0000     5.47570E-03
 STRESS PERIOD TIME 3.19680E+07 5.32800E+05  8880.0      370.00      1.0130    
         TOTAL TIME 4.92480E+07 8.20800E+05  13680.      570.00      1.5606    


end timestep


start timestep kper="2" kstp="186" mode="normal"

 UBDSV1 SAVING     FLOW-JA-FACE ON UNIT   1030 AT TIME STEP    186, STRESS PERIOD      2
 UBDSV1 SAVING  STORAGE-AQUEOUS ON UNIT   1030 AT TIME STEP    186, STRESS PERIOD      2
 UBDSV06 SAVING  SOURCE-SINK MIX IN MODEL SVA_TM_T         PACKAGE SVA_TM_T        CONNECTED TO MODEL SVA_TM_T         PACKAGE SSM              ON UNIT   1030 AT TIME STEP    186, STRESS PERIOD      2

 CONCENTRATION WILL BE SAVED ON UNIT 1031 AT END OF TIME STEP  186, STRESS PERIOD    2


  MASS BUDGET FOR ENTIRE MODEL AT END OF TIME STEP  186, STRESS PERIOD   2
  ---------------------------------------------------------------------------------------------------

     CUMULATIVE MASS      M       RATES FOR THIS TIME STEP      M/T          PACKAGE NAME    
     ------------------                 ------------------------                     ----------------

           IN:                                      IN:
           ---                                      ---
     STORAGE-AQUEOUS =       2.5566E-05       STORAGE-AQUEOUS =       1.4918E-12     MST                              
                 WEL =           0.0000                   WEL =           0.0000     SSM_WEL1                         
                 WEL =           0.2860                   WEL =       5.0000E-04     SSM_WEL2                         

            TOTAL IN =           0.2860              TOTAL IN =       5.0000E-04

          OUT:                                     OUT:
          ----                                     ----
     STORAGE-AQUEOUS =           0.1182       STORAGE-AQUEOUS =       1.0593E-04     MST                              
                 WEL =           0.1678                   WEL =       3.9409E-04     SSM_WEL1                         
                 WEL =           0.0000                   WEL =           0.0000     SSM_WEL2                         

           TOTAL OUT =           0.2860             TOTAL OUT =       5.0002E-04

            IN - OUT =      -3.5838E-06              IN - OUT =      -1.6554E-08

 PERCENT DISCREPANCY =          -0.00     PERCENT DISCREPANCY =          -0.00




         TIME SUMMARY AT END OF TIME STEP  186 IN STRESS PERIOD    2
                    SECONDS     MINUTES      HOURS       DAYS        YEARS
                    -----------------------------------------------------------
   TIME STEP LENGTH 1.72800E+05  2880.0      48.000      2.0000     5.47570E-03
 STRESS PERIOD TIME 3.21408E+07 5.35680E+05  8928.0      372.00      1.0185    
         TOTAL TIME 4.94208E+07 8.23680E+05  13728.      572.00      1.5661    


end timestep


start timestep kper="2" kstp="187" mode="normal"

 UBDSV1 SAVING     FLOW-JA-FACE ON UNIT   1030 AT TIME STEP    187, STRESS PERIOD      2
 UBDSV1 SAVING  STORAGE-AQUEOUS ON UNIT   1030 AT TIME STEP    187, STRESS PERIOD      2
 UBDSV06 SAVING  SOURCE-SINK MIX IN MODEL SVA_TM_T         PACKAGE SVA_TM_T        CONNECTED TO MODEL SVA_TM_T         PACKAGE SSM              ON UNIT   1030 AT TIME STEP    187, STRESS PERIOD      2

 CONCENTRATION WILL BE SAVED ON UNIT 1031 AT END OF TIME STEP  187, STRESS PERIOD    2


  MASS BUDGET FOR ENTIRE MODEL AT END OF TIME STEP  187, STRESS PERIOD   2
  ---------------------------------------------------------------------------------------------------

     CUMULATIVE MASS      M       RATES FOR THIS TIME STEP      M/T          PACKAGE NAME    
     ------------------                 ------------------------                     ----------------

           IN:                                      IN:
           ---                                      ---
     STORAGE-AQUEOUS =       2.5566E-05       STORAGE-AQUEOUS =       1.3945E-12     MST                              
                 WEL =           0.0000                   WEL =           0.0000     SSM_WEL1                         
                 WEL =           0.2870                   WEL =       5.0000E-04     SSM_WEL2                         

            TOTAL IN =           0.2870              TOTAL IN =       5.0000E-04

          OUT:                                     OUT:
          ----                                     ----
     STORAGE-AQUEOUS =           0.1184       STORAGE-AQUEOUS =       1.0543E-04     MST                              
                 WEL =           0.1686                   WEL =       3.9459E-04     SSM_WEL1                         
                 WEL =           0.0000                   WEL =           0.0000     SSM_WEL2                         

           TOTAL OUT =           0.2870             TOTAL OUT =       5.0002E-04

            IN - OUT =      -3.6167E-06              IN - OUT =      -1.6420E-08

 PERCENT DISCREPANCY =          -0.00     PERCENT DISCREPANCY =          -0.00




         TIME SUMMARY AT END OF TIME STEP  187 IN STRESS PERIOD    2
                    SECONDS     MINUTES      HOURS       DAYS        YEARS
                    -----------------------------------------------------------
   TIME STEP LENGTH 1.72800E+05  2880.0      48.000      2.0000     5.47570E-03
 STRESS PERIOD TIME 3.23136E+07 5.38560E+05  8976.0      374.00      1.0240    
         TOTAL TIME 4.95936E+07 8.26560E+05  13776.      574.00      1.5715    


end timestep


start timestep kper="2" kstp="188" mode="normal"

 UBDSV1 SAVING     FLOW-JA-FACE ON UNIT   1030 AT TIME STEP    188, STRESS PERIOD      2
 UBDSV1 SAVING  STORAGE-AQUEOUS ON UNIT   1030 AT TIME STEP    188, STRESS PERIOD      2
 UBDSV06 SAVING  SOURCE-SINK MIX IN MODEL SVA_TM_T         PACKAGE SVA_TM_T        CONNECTED TO MODEL SVA_TM_T         PACKAGE SSM              ON UNIT   1030 AT TIME STEP    188, STRESS PERIOD      2

 CONCENTRATION WILL BE SAVED ON UNIT 1031 AT END OF TIME STEP  188, STRESS PERIOD    2


  MASS BUDGET FOR ENTIRE MODEL AT END OF TIME STEP  188, STRESS PERIOD   2
  ---------------------------------------------------------------------------------------------------

     CUMULATIVE MASS      M       RATES FOR THIS TIME STEP      M/T          PACKAGE NAME    
     ------------------                 ------------------------                     ----------------

           IN:                                      IN:
           ---                                      ---
     STORAGE-AQUEOUS =       2.5566E-05       STORAGE-AQUEOUS =       1.2695E-12     MST                              
                 WEL =           0.0000                   WEL =           0.0000     SSM_WEL1                         
                 WEL =           0.2880                   WEL =       5.0000E-04     SSM_WEL2                         

            TOTAL IN =           0.2880              TOTAL IN =       5.0000E-04

          OUT:                                     OUT:
          ----                                     ----
     STORAGE-AQUEOUS =           0.1186       STORAGE-AQUEOUS =       1.0493E-04     MST                              
                 WEL =           0.1694                   WEL =       3.9509E-04     SSM_WEL1                         
                 WEL =           0.0000                   WEL =           0.0000     SSM_WEL2                         

           TOTAL OUT =           0.2880             TOTAL OUT =       5.0002E-04

            IN - OUT =      -3.6493E-06              IN - OUT =      -1.6302E-08

 PERCENT DISCREPANCY =          -0.00     PERCENT DISCREPANCY =          -0.00




         TIME SUMMARY AT END OF TIME STEP  188 IN STRESS PERIOD    2
                    SECONDS     MINUTES      HOURS       DAYS        YEARS
                    -----------------------------------------------------------
   TIME STEP LENGTH 1.72800E+05  2880.0      48.000      2.0000     5.47570E-03
 STRESS PERIOD TIME 3.24864E+07 5.41440E+05  9024.0      376.00      1.0294    
         TOTAL TIME 4.97664E+07 8.29440E+05  13824.      576.00      1.5770    


end timestep


start timestep kper="2" kstp="189" mode="normal"

 UBDSV1 SAVING     FLOW-JA-FACE ON UNIT   1030 AT TIME STEP    189, STRESS PERIOD      2
 UBDSV1 SAVING  STORAGE-AQUEOUS ON UNIT   1030 AT TIME STEP    189, STRESS PERIOD      2
 UBDSV06 SAVING  SOURCE-SINK MIX IN MODEL SVA_TM_T         PACKAGE SVA_TM_T        CONNECTED TO MODEL SVA_TM_T         PACKAGE SSM              ON UNIT   1030 AT TIME STEP    189, STRESS PERIOD      2

 CONCENTRATION WILL BE SAVED ON UNIT 1031 AT END OF TIME STEP  189, STRESS PERIOD    2


  MASS BUDGET FOR ENTIRE MODEL AT END OF TIME STEP  189, STRESS PERIOD   2
  ---------------------------------------------------------------------------------------------------

     CUMULATIVE MASS      M       RATES FOR THIS TIME STEP      M/T          PACKAGE NAME    
     ------------------                 ------------------------                     ----------------

           IN:                                      IN:
           ---                                      ---
     STORAGE-AQUEOUS =       2.5566E-05       STORAGE-AQUEOUS =       1.1240E-12     MST                              
                 WEL =           0.0000                   WEL =           0.0000     SSM_WEL1                         
                 WEL =           0.2890                   WEL =       5.0000E-04     SSM_WEL2                         

            TOTAL IN =           0.2890              TOTAL IN =       5.0000E-04

          OUT:                                     OUT:
          ----                                     ----
     STORAGE-AQUEOUS =           0.1188       STORAGE-AQUEOUS =       1.0443E-04     MST                              
                 WEL =           0.1702                   WEL =       3.9559E-04     SSM_WEL1                         
                 WEL =           0.0000                   WEL =           0.0000     SSM_WEL2                         

           TOTAL OUT =           0.2890             TOTAL OUT =       5.0002E-04

            IN - OUT =      -3.6816E-06              IN - OUT =      -1.6177E-08

 PERCENT DISCREPANCY =          -0.00     PERCENT DISCREPANCY =          -0.00




         TIME SUMMARY AT END OF TIME STEP  189 IN STRESS PERIOD    2
                    SECONDS     MINUTES      HOURS       DAYS        YEARS
                    -----------------------------------------------------------
   TIME STEP LENGTH 1.72800E+05  2880.0      48.000      2.0000     5.47570E-03
 STRESS PERIOD TIME 3.26592E+07 5.44320E+05  9072.0      378.00      1.0349    
         TOTAL TIME 4.99392E+07 8.32320E+05  13872.      578.00      1.5825    


end timestep


start timestep kper="2" kstp="190" mode="normal"

 UBDSV1 SAVING     FLOW-JA-FACE ON UNIT   1030 AT TIME STEP    190, STRESS PERIOD      2
 UBDSV1 SAVING  STORAGE-AQUEOUS ON UNIT   1030 AT TIME STEP    190, STRESS PERIOD      2
 UBDSV06 SAVING  SOURCE-SINK MIX IN MODEL SVA_TM_T         PACKAGE SVA_TM_T        CONNECTED TO MODEL SVA_TM_T         PACKAGE SSM              ON UNIT   1030 AT TIME STEP    190, STRESS PERIOD      2

 CONCENTRATION WILL BE SAVED ON UNIT 1031 AT END OF TIME STEP  190, STRESS PERIOD    2


  MASS BUDGET FOR ENTIRE MODEL AT END OF TIME STEP  190, STRESS PERIOD   2
  ---------------------------------------------------------------------------------------------------

     CUMULATIVE MASS      M       RATES FOR THIS TIME STEP      M/T          PACKAGE NAME    
     ------------------                 ------------------------                     ----------------

           IN:                                      IN:
           ---                                      ---
     STORAGE-AQUEOUS =       2.5566E-05       STORAGE-AQUEOUS =       9.7314E-13     MST                              
                 WEL =           0.0000                   WEL =           0.0000     SSM_WEL1                         
                 WEL =           0.2900                   WEL =       5.0000E-04     SSM_WEL2                         

            TOTAL IN =           0.2900              TOTAL IN =       5.0000E-04

          OUT:                                     OUT:
          ----                                     ----
     STORAGE-AQUEOUS =           0.1190       STORAGE-AQUEOUS =       1.0394E-04     MST                              
                 WEL =           0.1710                   WEL =       3.9608E-04     SSM_WEL1                         
                 WEL =           0.0000                   WEL =           0.0000     SSM_WEL2                         

           TOTAL OUT =           0.2900             TOTAL OUT =       5.0002E-04

            IN - OUT =      -3.7137E-06              IN - OUT =      -1.6053E-08

 PERCENT DISCREPANCY =          -0.00     PERCENT DISCREPANCY =          -0.00




         TIME SUMMARY AT END OF TIME STEP  190 IN STRESS PERIOD    2
                    SECONDS     MINUTES      HOURS       DAYS        YEARS
                    -----------------------------------------------------------
   TIME STEP LENGTH 1.72800E+05  2880.0      48.000      2.0000     5.47570E-03
 STRESS PERIOD TIME 3.28320E+07 5.47200E+05  9120.0      380.00      1.0404    
         TOTAL TIME 5.01120E+07 8.35200E+05  13920.      580.00      1.5880    


end timestep


start timestep kper="2" kstp="191" mode="normal"

 UBDSV1 SAVING     FLOW-JA-FACE ON UNIT   1030 AT TIME STEP    191, STRESS PERIOD      2
 UBDSV1 SAVING  STORAGE-AQUEOUS ON UNIT   1030 AT TIME STEP    191, STRESS PERIOD      2
 UBDSV06 SAVING  SOURCE-SINK MIX IN MODEL SVA_TM_T         PACKAGE SVA_TM_T        CONNECTED TO MODEL SVA_TM_T         PACKAGE SSM              ON UNIT   1030 AT TIME STEP    191, STRESS PERIOD      2

 CONCENTRATION WILL BE SAVED ON UNIT 1031 AT END OF TIME STEP  191, STRESS PERIOD    2


  MASS BUDGET FOR ENTIRE MODEL AT END OF TIME STEP  191, STRESS PERIOD   2
  ---------------------------------------------------------------------------------------------------

     CUMULATIVE MASS      M       RATES FOR THIS TIME STEP      M/T          PACKAGE NAME    
     ------------------                 ------------------------                     ----------------

           IN:                                      IN:
           ---                                      ---
     STORAGE-AQUEOUS =       2.5566E-05       STORAGE-AQUEOUS =       8.6006E-13     MST                              
                 WEL =           0.0000                   WEL =           0.0000     SSM_WEL1                         
                 WEL =           0.2910                   WEL =       5.0000E-04     SSM_WEL2                         

            TOTAL IN =           0.2910              TOTAL IN =       5.0000E-04

          OUT:                                     OUT:
          ----                                     ----
     STORAGE-AQUEOUS =           0.1192       STORAGE-AQUEOUS =       1.0345E-04     MST                              
                 WEL =           0.1718                   WEL =       3.9656E-04     SSM_WEL1                         
                 WEL =           0.0000                   WEL =           0.0000     SSM_WEL2                         

           TOTAL OUT =           0.2910             TOTAL OUT =       5.0002E-04

            IN - OUT =      -3.7456E-06              IN - OUT =      -1.5929E-08

 PERCENT DISCREPANCY =          -0.00     PERCENT DISCREPANCY =          -0.00




         TIME SUMMARY AT END OF TIME STEP  191 IN STRESS PERIOD    2
                    SECONDS     MINUTES      HOURS       DAYS        YEARS
                    -----------------------------------------------------------
   TIME STEP LENGTH 1.72800E+05  2880.0      48.000      2.0000     5.47570E-03
 STRESS PERIOD TIME 3.30048E+07 5.50080E+05  9168.0      382.00      1.0459    
         TOTAL TIME 5.02848E+07 8.38080E+05  13968.      582.00      1.5934    


end timestep


start timestep kper="2" kstp="192" mode="normal"

 UBDSV1 SAVING     FLOW-JA-FACE ON UNIT   1030 AT TIME STEP    192, STRESS PERIOD      2
 UBDSV1 SAVING  STORAGE-AQUEOUS ON UNIT   1030 AT TIME STEP    192, STRESS PERIOD      2
 UBDSV06 SAVING  SOURCE-SINK MIX IN MODEL SVA_TM_T         PACKAGE SVA_TM_T        CONNECTED TO MODEL SVA_TM_T         PACKAGE SSM              ON UNIT   1030 AT TIME STEP    192, STRESS PERIOD      2

 CONCENTRATION WILL BE SAVED ON UNIT 1031 AT END OF TIME STEP  192, STRESS PERIOD    2


  MASS BUDGET FOR ENTIRE MODEL AT END OF TIME STEP  192, STRESS PERIOD   2
  ---------------------------------------------------------------------------------------------------

     CUMULATIVE MASS      M       RATES FOR THIS TIME STEP      M/T          PACKAGE NAME    
     ------------------                 ------------------------                     ----------------

           IN:                                      IN:
           ---                                      ---
     STORAGE-AQUEOUS =       2.5566E-05       STORAGE-AQUEOUS =       7.4629E-13     MST                              
                 WEL =           0.0000                   WEL =           0.0000     SSM_WEL1                         
                 WEL =           0.2920                   WEL =       5.0000E-04     SSM_WEL2                         

            TOTAL IN =           0.2920              TOTAL IN =       5.0000E-04

          OUT:                                     OUT:
          ----                                     ----
     STORAGE-AQUEOUS =           0.1195       STORAGE-AQUEOUS =       1.0297E-04     MST                              
                 WEL =           0.1726                   WEL =       3.9705E-04     SSM_WEL1                         
                 WEL =           0.0000                   WEL =           0.0000     SSM_WEL2                         

           TOTAL OUT =           0.2920             TOTAL OUT =       5.0002E-04

            IN - OUT =      -3.7773E-06              IN - OUT =      -1.5853E-08

 PERCENT DISCREPANCY =          -0.00     PERCENT DISCREPANCY =          -0.00




         TIME SUMMARY AT END OF TIME STEP  192 IN STRESS PERIOD    2
                    SECONDS     MINUTES      HOURS       DAYS        YEARS
                    -----------------------------------------------------------
   TIME STEP LENGTH 1.72800E+05  2880.0      48.000      2.0000     5.47570E-03
 STRESS PERIOD TIME 3.31776E+07 5.52960E+05  9216.0      384.00      1.0513    
         TOTAL TIME 5.04576E+07 8.40960E+05  14016.      584.00      1.5989    


end timestep


start timestep kper="2" kstp="193" mode="normal"

 UBDSV1 SAVING     FLOW-JA-FACE ON UNIT   1030 AT TIME STEP    193, STRESS PERIOD      2
 UBDSV1 SAVING  STORAGE-AQUEOUS ON UNIT   1030 AT TIME STEP    193, STRESS PERIOD      2
 UBDSV06 SAVING  SOURCE-SINK MIX IN MODEL SVA_TM_T         PACKAGE SVA_TM_T        CONNECTED TO MODEL SVA_TM_T         PACKAGE SSM              ON UNIT   1030 AT TIME STEP    193, STRESS PERIOD      2

 CONCENTRATION WILL BE SAVED ON UNIT 1031 AT END OF TIME STEP  193, STRESS PERIOD    2


  MASS BUDGET FOR ENTIRE MODEL AT END OF TIME STEP  193, STRESS PERIOD   2
  ---------------------------------------------------------------------------------------------------

     CUMULATIVE MASS      M       RATES FOR THIS TIME STEP      M/T          PACKAGE NAME    
     ------------------                 ------------------------                     ----------------

           IN:                                      IN:
           ---                                      ---
     STORAGE-AQUEOUS =       2.5566E-05       STORAGE-AQUEOUS =       6.3670E-13     MST                              
                 WEL =           0.0000                   WEL =           0.0000     SSM_WEL1                         
                 WEL =           0.2930                   WEL =       5.0000E-04     SSM_WEL2                         

            TOTAL IN =           0.2930              TOTAL IN =       5.0000E-04

          OUT:                                     OUT:
          ----                                     ----
     STORAGE-AQUEOUS =           0.1197       STORAGE-AQUEOUS =       1.0249E-04     MST                              
                 WEL =           0.1734                   WEL =       3.9752E-04     SSM_WEL1                         
                 WEL =           0.0000                   WEL =           0.0000     SSM_WEL2                         

           TOTAL OUT =           0.2930             TOTAL OUT =       5.0002E-04

            IN - OUT =      -3.8088E-06              IN - OUT =      -1.5739E-08

 PERCENT DISCREPANCY =          -0.00     PERCENT DISCREPANCY =          -0.00




         TIME SUMMARY AT END OF TIME STEP  193 IN STRESS PERIOD    2
                    SECONDS     MINUTES      HOURS       DAYS        YEARS
                    -----------------------------------------------------------
   TIME STEP LENGTH 1.72800E+05  2880.0      48.000      2.0000     5.47570E-03
 STRESS PERIOD TIME 3.33504E+07 5.55840E+05  9264.0      386.00      1.0568    
         TOTAL TIME 5.06304E+07 8.43840E+05  14064.      586.00      1.6044    


end timestep


start timestep kper="2" kstp="194" mode="normal"

 UBDSV1 SAVING     FLOW-JA-FACE ON UNIT   1030 AT TIME STEP    194, STRESS PERIOD      2
 UBDSV1 SAVING  STORAGE-AQUEOUS ON UNIT   1030 AT TIME STEP    194, STRESS PERIOD      2
 UBDSV06 SAVING  SOURCE-SINK MIX IN MODEL SVA_TM_T         PACKAGE SVA_TM_T        CONNECTED TO MODEL SVA_TM_T         PACKAGE SSM              ON UNIT   1030 AT TIME STEP    194, STRESS PERIOD      2

 CONCENTRATION WILL BE SAVED ON UNIT 1031 AT END OF TIME STEP  194, STRESS PERIOD    2


  MASS BUDGET FOR ENTIRE MODEL AT END OF TIME STEP  194, STRESS PERIOD   2
  ---------------------------------------------------------------------------------------------------

     CUMULATIVE MASS      M       RATES FOR THIS TIME STEP      M/T          PACKAGE NAME    
     ------------------                 ------------------------                     ----------------

           IN:                                      IN:
           ---                                      ---
     STORAGE-AQUEOUS =       2.5566E-05       STORAGE-AQUEOUS =       5.3444E-13     MST                              
                 WEL =           0.0000                   WEL =           0.0000     SSM_WEL1                         
                 WEL =           0.2940                   WEL =       5.0000E-04     SSM_WEL2                         

            TOTAL IN =           0.2940              TOTAL IN =       5.0000E-04

          OUT:                                     OUT:
          ----                                     ----
     STORAGE-AQUEOUS =           0.1199       STORAGE-AQUEOUS =       1.0202E-04     MST                              
                 WEL =           0.1742                   WEL =       3.9800E-04     SSM_WEL1                         
                 WEL =           0.0000                   WEL =           0.0000     SSM_WEL2                         

           TOTAL OUT =           0.2940             TOTAL OUT =       5.0002E-04

            IN - OUT =      -3.8400E-06              IN - OUT =      -1.5633E-08

 PERCENT DISCREPANCY =          -0.00     PERCENT DISCREPANCY =          -0.00




         TIME SUMMARY AT END OF TIME STEP  194 IN STRESS PERIOD    2
                    SECONDS     MINUTES      HOURS       DAYS        YEARS
                    -----------------------------------------------------------
   TIME STEP LENGTH 1.72800E+05  2880.0      48.000      2.0000     5.47570E-03
 STRESS PERIOD TIME 3.35232E+07 5.58720E+05  9312.0      388.00      1.0623    
         TOTAL TIME 5.08032E+07 8.46720E+05  14112.      588.00      1.6099    


end timestep


start timestep kper="2" kstp="195" mode="normal"

 UBDSV1 SAVING     FLOW-JA-FACE ON UNIT   1030 AT TIME STEP    195, STRESS PERIOD      2
 UBDSV1 SAVING  STORAGE-AQUEOUS ON UNIT   1030 AT TIME STEP    195, STRESS PERIOD      2
 UBDSV06 SAVING  SOURCE-SINK MIX IN MODEL SVA_TM_T         PACKAGE SVA_TM_T        CONNECTED TO MODEL SVA_TM_T         PACKAGE SSM              ON UNIT   1030 AT TIME STEP    195, STRESS PERIOD      2

 CONCENTRATION WILL BE SAVED ON UNIT 1031 AT END OF TIME STEP  195, STRESS PERIOD    2


  MASS BUDGET FOR ENTIRE MODEL AT END OF TIME STEP  195, STRESS PERIOD   2
  ---------------------------------------------------------------------------------------------------

     CUMULATIVE MASS      M       RATES FOR THIS TIME STEP      M/T          PACKAGE NAME    
     ------------------                 ------------------------                     ----------------

           IN:                                      IN:
           ---                                      ---
     STORAGE-AQUEOUS =       2.5566E-05       STORAGE-AQUEOUS =       4.3126E-13     MST                              
                 WEL =           0.0000                   WEL =           0.0000     SSM_WEL1                         
                 WEL =           0.2950                   WEL =       5.0000E-04     SSM_WEL2                         

            TOTAL IN =           0.2950              TOTAL IN =       5.0000E-04

          OUT:                                     OUT:
          ----                                     ----
     STORAGE-AQUEOUS =           0.1201       STORAGE-AQUEOUS =       1.0155E-04     MST                              
                 WEL =           0.1750                   WEL =       3.9847E-04     SSM_WEL1                         
                 WEL =           0.0000                   WEL =           0.0000     SSM_WEL2                         

           TOTAL OUT =           0.2950             TOTAL OUT =       5.0002E-04

            IN - OUT =      -3.8710E-06              IN - OUT =      -1.5471E-08

 PERCENT DISCREPANCY =          -0.00     PERCENT DISCREPANCY =          -0.00




         TIME SUMMARY AT END OF TIME STEP  195 IN STRESS PERIOD    2
                    SECONDS     MINUTES      HOURS       DAYS        YEARS
                    -----------------------------------------------------------
   TIME STEP LENGTH 1.72800E+05  2880.0      48.000      2.0000     5.47570E-03
 STRESS PERIOD TIME 3.36960E+07 5.61600E+05  9360.0      390.00      1.0678    
         TOTAL TIME 5.09760E+07 8.49600E+05  14160.      590.00      1.6153    


end timestep


start timestep kper="2" kstp="196" mode="normal"

 UBDSV1 SAVING     FLOW-JA-FACE ON UNIT   1030 AT TIME STEP    196, STRESS PERIOD      2
 UBDSV1 SAVING  STORAGE-AQUEOUS ON UNIT   1030 AT TIME STEP    196, STRESS PERIOD      2
 UBDSV06 SAVING  SOURCE-SINK MIX IN MODEL SVA_TM_T         PACKAGE SVA_TM_T        CONNECTED TO MODEL SVA_TM_T         PACKAGE SSM              ON UNIT   1030 AT TIME STEP    196, STRESS PERIOD      2

 CONCENTRATION WILL BE SAVED ON UNIT 1031 AT END OF TIME STEP  196, STRESS PERIOD    2


  MASS BUDGET FOR ENTIRE MODEL AT END OF TIME STEP  196, STRESS PERIOD   2
  ---------------------------------------------------------------------------------------------------

     CUMULATIVE MASS      M       RATES FOR THIS TIME STEP      M/T          PACKAGE NAME    
     ------------------                 ------------------------                     ----------------

           IN:                                      IN:
           ---                                      ---
     STORAGE-AQUEOUS =       2.5566E-05       STORAGE-AQUEOUS =       3.3717E-13     MST                              
                 WEL =           0.0000                   WEL =           0.0000     SSM_WEL1                         
                 WEL =           0.2960                   WEL =       5.0000E-04     SSM_WEL2                         

            TOTAL IN =           0.2960              TOTAL IN =       5.0000E-04

          OUT:                                     OUT:
          ----                                     ----
     STORAGE-AQUEOUS =           0.1203       STORAGE-AQUEOUS =       1.0108E-04     MST                              
                 WEL =           0.1758                   WEL =       3.9893E-04     SSM_WEL1                         
                 WEL =           0.0000                   WEL =           0.0000     SSM_WEL2                         

           TOTAL OUT =           0.2960             TOTAL OUT =       5.0002E-04

            IN - OUT =      -3.9018E-06              IN - OUT =      -1.5412E-08

 PERCENT DISCREPANCY =          -0.00     PERCENT DISCREPANCY =          -0.00




         TIME SUMMARY AT END OF TIME STEP  196 IN STRESS PERIOD    2
                    SECONDS     MINUTES      HOURS       DAYS        YEARS
                    -----------------------------------------------------------
   TIME STEP LENGTH 1.72800E+05  2880.0      48.000      2.0000     5.47570E-03
 STRESS PERIOD TIME 3.38688E+07 5.64480E+05  9408.0      392.00      1.0732    
         TOTAL TIME 5.11488E+07 8.52480E+05  14208.      592.00      1.6208    


end timestep


start timestep kper="2" kstp="197" mode="normal"

 UBDSV1 SAVING     FLOW-JA-FACE ON UNIT   1030 AT TIME STEP    197, STRESS PERIOD      2
 UBDSV1 SAVING  STORAGE-AQUEOUS ON UNIT   1030 AT TIME STEP    197, STRESS PERIOD      2
 UBDSV06 SAVING  SOURCE-SINK MIX IN MODEL SVA_TM_T         PACKAGE SVA_TM_T        CONNECTED TO MODEL SVA_TM_T         PACKAGE SSM              ON UNIT   1030 AT TIME STEP    197, STRESS PERIOD      2

 CONCENTRATION WILL BE SAVED ON UNIT 1031 AT END OF TIME STEP  197, STRESS PERIOD    2


  MASS BUDGET FOR ENTIRE MODEL AT END OF TIME STEP  197, STRESS PERIOD   2
  ---------------------------------------------------------------------------------------------------

     CUMULATIVE MASS      M       RATES FOR THIS TIME STEP      M/T          PACKAGE NAME    
     ------------------                 ------------------------                     ----------------

           IN:                                      IN:
           ---                                      ---
     STORAGE-AQUEOUS =       2.5566E-05       STORAGE-AQUEOUS =       2.4380E-13     MST                              
                 WEL =           0.0000                   WEL =           0.0000     SSM_WEL1                         
                 WEL =           0.2970                   WEL =       5.0000E-04     SSM_WEL2                         

            TOTAL IN =           0.2970              TOTAL IN =       5.0000E-04

          OUT:                                     OUT:
          ----                                     ----
     STORAGE-AQUEOUS =           0.1205       STORAGE-AQUEOUS =       1.0062E-04     MST                              
                 WEL =           0.1766                   WEL =       3.9939E-04     SSM_WEL1                         
                 WEL =           0.0000                   WEL =           0.0000     SSM_WEL2                         

           TOTAL OUT =           0.2970             TOTAL OUT =       5.0001E-04

            IN - OUT =      -3.9138E-06              IN - OUT =      -6.0173E-09

 PERCENT DISCREPANCY =          -0.00     PERCENT DISCREPANCY =          -0.00




         TIME SUMMARY AT END OF TIME STEP  197 IN STRESS PERIOD    2
                    SECONDS     MINUTES      HOURS       DAYS        YEARS
                    -----------------------------------------------------------
   TIME STEP LENGTH 1.72800E+05  2880.0      48.000      2.0000     5.47570E-03
 STRESS PERIOD TIME 3.40416E+07 5.67360E+05  9456.0      394.00      1.0787    
         TOTAL TIME 5.13216E+07 8.55360E+05  14256.      594.00      1.6263    


end timestep


start timestep kper="2" kstp="198" mode="normal"

 UBDSV1 SAVING     FLOW-JA-FACE ON UNIT   1030 AT TIME STEP    198, STRESS PERIOD      2
 UBDSV1 SAVING  STORAGE-AQUEOUS ON UNIT   1030 AT TIME STEP    198, STRESS PERIOD      2
 UBDSV06 SAVING  SOURCE-SINK MIX IN MODEL SVA_TM_T         PACKAGE SVA_TM_T        CONNECTED TO MODEL SVA_TM_T         PACKAGE SSM              ON UNIT   1030 AT TIME STEP    198, STRESS PERIOD      2

 CONCENTRATION WILL BE SAVED ON UNIT 1031 AT END OF TIME STEP  198, STRESS PERIOD    2


  MASS BUDGET FOR ENTIRE MODEL AT END OF TIME STEP  198, STRESS PERIOD   2
  ---------------------------------------------------------------------------------------------------

     CUMULATIVE MASS      M       RATES FOR THIS TIME STEP      M/T          PACKAGE NAME    
     ------------------                 ------------------------                     ----------------

           IN:                                      IN:
           ---                                      ---
     STORAGE-AQUEOUS =       2.5566E-05       STORAGE-AQUEOUS =       1.7014E-13     MST                              
                 WEL =           0.0000                   WEL =           0.0000     SSM_WEL1                         
                 WEL =           0.2980                   WEL =       5.0000E-04     SSM_WEL2                         

            TOTAL IN =           0.2980              TOTAL IN =       5.0000E-04

          OUT:                                     OUT:
          ----                                     ----
     STORAGE-AQUEOUS =           0.1207       STORAGE-AQUEOUS =       1.0017E-04     MST                              
                 WEL =           0.1774                   WEL =       3.9984E-04     SSM_WEL1                         
                 WEL =           0.0000                   WEL =           0.0000     SSM_WEL2                         

           TOTAL OUT =           0.2980             TOTAL OUT =       5.0000E-04

            IN - OUT =      -3.9209E-06              IN - OUT =      -3.5452E-09

 PERCENT DISCREPANCY =          -0.00     PERCENT DISCREPANCY =          -0.00




         TIME SUMMARY AT END OF TIME STEP  198 IN STRESS PERIOD    2
                    SECONDS     MINUTES      HOURS       DAYS        YEARS
                    -----------------------------------------------------------
   TIME STEP LENGTH 1.72800E+05  2880.0      48.000      2.0000     5.47570E-03
 STRESS PERIOD TIME 3.42144E+07 5.70240E+05  9504.0      396.00      1.0842    
         TOTAL TIME 5.14944E+07 8.58240E+05  14304.      596.00      1.6318    


end timestep


start timestep kper="2" kstp="199" mode="normal"

 UBDSV1 SAVING     FLOW-JA-FACE ON UNIT   1030 AT TIME STEP    199, STRESS PERIOD      2
 UBDSV1 SAVING  STORAGE-AQUEOUS ON UNIT   1030 AT TIME STEP    199, STRESS PERIOD      2
 UBDSV06 SAVING  SOURCE-SINK MIX IN MODEL SVA_TM_T         PACKAGE SVA_TM_T        CONNECTED TO MODEL SVA_TM_T         PACKAGE SSM              ON UNIT   1030 AT TIME STEP    199, STRESS PERIOD      2

 CONCENTRATION WILL BE SAVED ON UNIT 1031 AT END OF TIME STEP  199, STRESS PERIOD    2


  MASS BUDGET FOR ENTIRE MODEL AT END OF TIME STEP  199, STRESS PERIOD   2
  ---------------------------------------------------------------------------------------------------

     CUMULATIVE MASS      M       RATES FOR THIS TIME STEP      M/T          PACKAGE NAME    
     ------------------                 ------------------------                     ----------------

           IN:                                      IN:
           ---                                      ---
     STORAGE-AQUEOUS =       2.5566E-05       STORAGE-AQUEOUS =       1.0199E-13     MST                              
                 WEL =           0.0000                   WEL =           0.0000     SSM_WEL1                         
                 WEL =           0.2990                   WEL =       5.0000E-04     SSM_WEL2                         

            TOTAL IN =           0.2990              TOTAL IN =       5.0000E-04

          OUT:                                     OUT:
          ----                                     ----
     STORAGE-AQUEOUS =           0.1209       STORAGE-AQUEOUS =       9.9725E-05     MST                              
                 WEL =           0.1782                   WEL =       4.0028E-04     SSM_WEL1                         
                 WEL =           0.0000                   WEL =           0.0000     SSM_WEL2                         

           TOTAL OUT =           0.2990             TOTAL OUT =       5.0000E-04

            IN - OUT =      -3.9277E-06              IN - OUT =      -3.3796E-09

 PERCENT DISCREPANCY =          -0.00     PERCENT DISCREPANCY =          -0.00




         TIME SUMMARY AT END OF TIME STEP  199 IN STRESS PERIOD    2
                    SECONDS     MINUTES      HOURS       DAYS        YEARS
                    -----------------------------------------------------------
   TIME STEP LENGTH 1.72800E+05  2880.0      48.000      2.0000     5.47570E-03
 STRESS PERIOD TIME 3.43872E+07 5.73120E+05  9552.0      398.00      1.0897    
         TOTAL TIME 5.16672E+07 8.61120E+05  14352.      598.00      1.6372    


end timestep


start timestep kper="2" kstp="200" mode="normal"

 UBDSV1 SAVING     FLOW-JA-FACE ON UNIT   1030 AT TIME STEP    200, STRESS PERIOD      2
 UBDSV1 SAVING  STORAGE-AQUEOUS ON UNIT   1030 AT TIME STEP    200, STRESS PERIOD      2
 UBDSV06 SAVING  SOURCE-SINK MIX IN MODEL SVA_TM_T         PACKAGE SVA_TM_T        CONNECTED TO MODEL SVA_TM_T         PACKAGE SSM              ON UNIT   1030 AT TIME STEP    200, STRESS PERIOD      2
1
  CONCENTRATION IN LAYER   1 AT END OF TIME STEP 200 IN STRESS PERIOD    2
  ---------------------------------------------------------------------------

                1               2               3               4               5               6               7               8               9              10
               11              12              13              14              15              16              17              18              19              20
               21              22              23              24              25              26              27              28              29              30
               31              32              33              34              35              36              37              38              39              40
               41              42              43              44              45              46              47              48              49              50
 ................................................................................................................................................................
   1     1.651074E-31    4.268996E-29    5.622910E-27    4.843393E-25    3.130770E-23    1.656454E-21    7.743685E-20    3.425582E-18    1.493493E-16    3.167799E-14
         7.029003E-12    1.771281E-09    7.586379E-07    2.382226E-04    9.480505E-03    8.815286E-02    0.203355        0.360111        0.511212        0.616806    
         0.686316        0.731183        0.760028        0.778632        0.790762        0.798863        0.804481        0.808301        0.811051        0.811141    
         0.810313        0.809013        0.807355        0.805291        0.802709        0.799444        0.795231        0.789400        0.778620        0.746603    
         0.642057        0.357542        6.648388E-02    3.102591E-03    5.669126E-05    6.079593E-07    4.319645E-09    2.030805E-11    5.532090E-14    8.348102E-17
   2     3.279123E-31    1.026651E-28    1.654727E-26    1.737676E-24    1.327101E-22    7.643704E-21    3.380777E-19    1.244237E-17    2.329483E-15    5.067707E-13
         1.108508E-10    2.102090E-08    6.794515E-06    1.747290E-03    6.115148E-02    0.338998        0.604197        0.763213        0.819942        0.870656    
         0.904050        0.922420        0.932086        0.936745        0.938278        0.937880        0.936857        0.935272        0.933026        0.929859    
         0.925855        0.920258        0.912835        0.903422        0.891729        0.877287        0.859629        0.838749        0.812893        0.765590    
         0.618864        0.228277        1.596128E-02    2.699047E-04    2.433309E-06    1.505314E-08    6.642215E-11    2.028810E-13    3.724380E-16    1.825980E-18
   3     4.340097E-31    1.528781E-28    2.767029E-26    3.211620E-24    2.698584E-22    1.787134E-20    1.019478E-18    5.436358E-17    1.348679E-14    3.060208E-12
         7.002908E-10    1.360979E-07    3.691510E-05    6.999244E-03    0.202723        0.607016        0.831077        0.925317        0.962327        0.977816    
         0.981488        0.985006        0.986940        0.987442        0.987131        0.986406        0.985438        0.984275        0.982814        0.980893    
         0.977801        0.972865        0.965780        0.956296        0.944008        0.928188        0.907859        0.882595        0.852526        0.728550    
         0.421077        3.870016E-02    6.036859E-04    3.977475E-06    1.913847E-08    7.634008E-11    2.471815E-13    6.259311E-16    3.964018E-18    4.960507E-20
   4     1.253644E-30    4.024499E-28    7.423239E-26    9.387150E-24    9.089428E-22    7.016509E-20    3.825874E-18    3.298499E-16    8.611446E-14    1.950000E-11
         4.446679E-09    9.501277E-07    2.075385E-04    2.694087E-02    0.436868        0.805562        0.938006        0.978749        0.991561        0.995980    
         0.997533        0.997739        0.997985        0.997966        0.997801        0.997447        0.996828        0.995599        0.993801        0.991781    
         0.989467        0.986223        0.981675        0.975447        0.967047        0.955685        0.940125        0.919696        0.813797        0.509020    
         0.206797        1.137753E-02    8.016984E-05    1.768713E-07    3.935568E-10    8.943442E-13    2.099743E-15    8.355791E-18    1.782625E-19    1.748126E-21
   5     4.174528E-29    5.895984E-27    7.479468E-25    7.610411E-23    5.868348E-21    3.516805E-19    1.852605E-17    4.834147E-15    1.188135E-12    2.512395E-10
         5.218082E-08    1.040691E-05    1.514971E-03    0.102246        0.678277        0.922369        0.981362        0.994947        0.998363        0.999353    
         0.999685        0.999787        0.999776        0.999754        0.999655        0.999205        0.996456        0.991311        0.987266        0.983994    
         0.979718        0.974969        0.970049        0.964778        0.958499        0.950457        0.939587        0.918461        0.822611        0.161828    
         9.796150E-03    6.746819E-04    4.009231E-06    7.125601E-09    1.146402E-11    1.818858E-14    3.550253E-17    6.558626E-19    9.875631E-21    8.288104E-23
   6     6.105013E-27    4.978047E-25    3.567979E-23    2.478878E-21    1.455112E-19    6.281292E-18    9.831489E-16    2.337150E-13    4.740987E-11    8.204714E-09
         1.308655E-06    1.765043E-04    1.333307E-02    0.296501        0.854510        0.975649        0.995535        0.999027        0.999743        0.999920    
         0.999974        0.999991        0.999994        0.999967        0.999755        0.997864        0.977435        0.983821        0.989508        0.989946    
         0.988140        0.982251        0.973160        0.961559        0.947402        0.930376        0.903567        0.853560        0.717543        0.331471    
         1.964322E-02    1.020471E-04    2.170942E-07    4.137604E-10    7.951331E-13    1.845936E-15    6.683453E-18    6.229903E-20    5.762942E-22    4.105083E-24
   7     9.201880E-25    6.365226E-23    3.478080E-21    1.720122E-19    6.843724E-18    6.470556E-16    1.148955E-13    1.965563E-11    2.938786E-09    3.668950E-07
         3.833939E-05    2.737740E-03    8.632815E-02    0.577605        0.947792        0.994066        0.999166        0.999855        0.999972        0.999997    
          1.00000         1.00001         1.00000        0.999968        0.999630        0.992752        0.968197        0.997722        0.998830        0.999064    
         0.998353        0.995924        0.987775        0.972554        0.949723        0.914541        0.858146        0.746664        0.522891        0.180874    
         1.466147E-02    2.088416E-04    7.808264E-07    9.140043E-09    6.561262E-11    3.245678E-13    1.193860E-15    3.413136E-18    7.460511E-21    1.138075E-23
   8     1.156027E-22    6.892222E-21    3.005377E-19    1.189058E-17    1.014778E-15    1.191191E-13    1.417985E-11    1.582767E-09    1.532193E-07    1.203798E-05
         7.226038E-04    2.744666E-02    0.296741        0.811092        0.981856        0.998618        0.999865        0.999985         1.00000         1.00000    
          1.00000         1.00000         1.00000        0.999988        0.999757        0.995068        0.999325        0.999799        0.999868        0.999897    
         0.999773        0.998907        0.994729        0.982734        0.958083        0.912412        0.823441        0.656434        0.375597        9.364968E-02
         5.668608E-03    7.902521E-05    4.357278E-07    5.533652E-09    5.346826E-11    4.595973E-13    2.867422E-15    1.289873E-17    4.422805E-20    1.055255E-22
   9     1.200055E-20    5.804509E-19    1.553738E-17    1.775619E-15    1.921654E-13    1.861342E-11    1.606971E-09    1.191810E-07    7.231140E-06    3.358690E-04
         1.038025E-02    0.147035        0.614044        0.928653        0.993735        0.999591        0.999973         1.00000         1.00000         1.00000    
          1.00000         1.00000         1.00000        0.999999        0.999983        0.999082        0.999974        0.999983        0.999985        0.999987    
         0.999950        0.999644        0.997740        0.990130        0.969338        0.922919        0.825184        0.632340        0.317173        6.789953E-02
         4.376874E-03    1.010124E-04    4.740989E-06    1.180305E-07    1.692732E-09    1.543153E-11    9.739440E-14    4.487175E-16    1.549699E-18    3.607613E-21
  10     1.076403E-18    5.321704E-17    1.626964E-15    2.386755E-13    2.450508E-11    2.025379E-09    1.351256E-07    7.069262E-06    2.744359E-04    7.030493E-03
         9.085005E-02    0.437433        0.838541        0.976908        0.997705        0.999839        0.999991         1.00000         1.00000         1.00000    
          1.00000         1.00000         1.00000         1.00000        0.999999        0.999995        0.999998        0.999999        0.999999        0.999998    
         0.999985        0.999872        0.999050        0.994836        0.980067        0.939846        0.841603        0.602824        0.318695        9.524805E-02
         1.512487E-02    1.336968E-03    6.528221E-05    1.749960E-06    2.734837E-08    2.717849E-10    1.854118E-12    9.066344E-15    3.218267E-17    7.416284E-20
  11     7.329926E-17    4.019131E-15    1.302216E-13    1.900909E-11    1.787735E-09    1.241602E-07    6.401041E-06    2.358086E-04    5.587998E-03    6.815438E-02
         0.341105        0.738089        0.943674        0.992010        0.999178        0.999934        0.999996         1.00000         1.00000         1.00000    
          1.00000         1.00000         1.00000         1.00000         1.00000        0.999999         1.00000         1.00000         1.00000        0.999999    
         0.999993        0.999948        0.999585        0.997397        0.987940        0.955942        0.844393        0.627016        0.347213        0.123607    
         2.539768E-02    2.835695E-03    1.671214E-04    5.329825E-06    9.909960E-08    1.177374E-09    9.610697E-12    5.574950E-14    2.257086E-16    5.879840E-19
  12     3.202610E-15    1.733741E-13    5.529232E-12    7.609946E-10    6.320112E-08    3.604594E-06    1.404104E-04    3.442350E-03    4.400175E-02    0.243139    
         0.606651        0.880428        0.977918        0.997016        0.999653        0.999965        0.999997         1.00000         1.00000         1.00000    
          1.00000         1.00000         1.00000         1.00000         1.00000         1.00000         1.00000         1.00000         1.00000        0.999999    
         0.999996        0.999974        0.999802        0.998655        0.992758        0.967813        0.858751        0.661706        0.388302        0.153247    
         3.621453E-02    4.708272E-03    3.246671E-04    1.224263E-05    2.744393E-07    4.013353E-09    4.084046E-11    2.951759E-13    1.465825E-15    4.515976E-18
  13     8.447596E-14    3.899169E-12    1.097002E-10    1.345439E-08    9.784632E-07    4.599677E-05    1.345394E-03    2.110853E-02    0.147274        0.455389    
         0.774241        0.940145        0.989253        0.998518        0.999825        0.999981        0.999998         1.00000         1.00000         1.00000    
          1.00000         1.00000         1.00000         1.00000         1.00000         1.00000         1.00000         1.00000         1.00000        0.999999    
         0.999996        0.999983        0.999890        0.999237        0.995205        0.970160        0.881120        0.699097        0.432406        0.184071    
         4.799919E-02    7.023147E-03    5.577282E-04    2.508237E-05    6.989100E-07    1.314528E-08    1.751117E-10    1.654366E-12    1.051267E-14    3.938270E-17
  14     1.878005E-12    6.398868E-11    1.284408E-09    1.069752E-07    7.000483E-06    2.802594E-04    6.300041E-03    6.573038E-02    0.289069        0.623859    
         0.865702        0.966782        0.993990        0.999134        0.999893        0.999988        0.999998         1.00000         1.00000         1.00000    
          1.00000         1.00000         1.00000         1.00000         1.00000         1.00000         1.00000         1.00000         1.00000        0.999999    
         0.999994        0.999980        0.999925        0.999541        0.996816        0.972301        0.886454        0.698439        0.430101        0.186086    
         5.084774E-02    8.032646E-03    7.204592E-04    3.876259E-05    1.362128E-06    3.342698E-08    5.881754E-10    7.284788E-12    5.912948E-14    2.620034E-16
  15     4.719091E-11    1.520789E-09    3.025117E-08    4.583986E-07    2.845580E-05    9.934115E-04    1.772659E-02    0.133010        0.424855        0.736996    
         0.914839        0.979575        0.996190        0.999427        0.999930        0.999992        0.999999        0.999999         1.00000         1.00000    
          1.00000         1.00000         1.00000         1.00000         1.00000         1.00000         1.00000         1.00000         1.00000        0.999997    
         0.999987        0.999958        0.999907        0.999587        0.994812        0.963411        0.862298        0.664747        0.391851        0.163729    
         4.318057E-02    6.668015E-03    5.985470E-04    3.297266E-05    1.182135E-06    2.783948E-08    4.012221E-10    3.033937E-12    1.063544E-14    2.562807E-17
  16     8.883354E-10    2.466745E-08    3.558363E-07    3.215180E-06    9.485117E-05    2.639418E-03    3.688196E-02    0.210660        0.536531        0.810261    
         0.942499        0.986323        0.997261        0.999360        0.999892        0.999982        0.999997        0.999998        0.999999         1.00000    
          1.00000         1.00000         1.00000         1.00000         1.00000         1.00000         1.00000         1.00000        0.999999        0.999995    
         0.999968        0.999856        0.999659        0.998660        0.979300        0.900942        0.772547        0.575158        0.325819        0.124638    
         2.839549E-02    4.112894E-03    3.554269E-04    1.884615E-05    6.251357E-07    1.288979E-08    1.595677E-10    1.168645E-12    5.672611E-15    2.901167E-17
  17     1.394547E-08    4.290155E-07    6.854527E-06    6.859609E-05    4.673542E-04    7.410451E-03    6.703633E-02    0.289775        0.621168        0.856714    
         0.958435        0.989991        0.997688        0.999191        0.999710        0.999649        0.999865        0.999984        0.999997        0.999999    
          1.00000         1.00000         1.00000         1.00000         1.00000         1.00000         1.00000         1.00000        0.999999        0.999988    
         0.999901        0.999336        0.996166        0.980551        0.768706        0.516381        0.450663        0.380887        0.230144        8.183320E-02
         1.446853E-02    1.980312E-03    1.727361E-04    9.898029E-06    4.160815E-07    4.265976E-09    2.732385E-11    2.690654E-13    4.417113E-15    9.784563E-17
  18     1.247498E-07    4.155449E-06    7.184373E-05    7.789610E-04    5.805777E-03    3.171223E-02    0.127835        0.357847        0.659480        0.870681    
         0.961834        0.990156        0.997711        0.998794        0.999005        0.999306        0.999756        0.999949        0.999990        0.999998    
          1.00000         1.00000         1.00000         1.00000         1.00000         1.00000         1.00000        0.999999        0.999996        0.999967    
         0.999715        0.998097        0.990462        0.960018        0.634110        0.152762        8.281201E-02    7.482745E-02    8.156457E-02    3.738118E-02
         6.111976E-03    8.644308E-04    8.853162E-05    7.446974E-06    1.850757E-07    2.599945E-09    2.511203E-11    1.773941E-13    4.354959E-15    7.134847E-17
  19     4.747752E-07    1.500076E-05    2.395221E-04    2.318707E-03    1.476544E-02    6.453211E-02    0.198833        0.438794        0.707733        0.888380    
         0.966208        0.990746        0.997568        0.998379        0.998626        0.998909        0.999448        0.999831        0.999964        0.999994    
         0.999998        0.999999        0.999999        0.999999        0.999999        0.999999        0.999998        0.999994        0.999978        0.999845    
         0.998793        0.992282        0.967924        0.904580        0.748885        0.303804        7.691715E-02    2.238654E-02    6.206569E-03    6.459263E-03
         1.485178E-03    2.466913E-04    3.085264E-05    1.842078E-06    6.262446E-08    1.422673E-09    2.323627E-11    2.440707E-13    1.013233E-14    2.251852E-16
  20     1.274933E-06    3.806899E-05    5.585649E-04    4.837948E-03    2.695658E-02    0.101423        0.267318        0.512935        0.752813        0.905005    
         0.970113        0.990669        0.996108        0.996593        0.996848        0.997393        0.998254        0.999308        0.999828        0.999969    
         0.999991        0.999994        0.999995        0.999994        0.999993        0.999988        0.999971        0.999945        0.999827        0.998990    
         0.992733        0.962709        0.887754        0.760394        0.582233        0.355114        0.117799        3.734457E-02    1.020295E-02    4.047582E-03
         1.171171E-03    2.560423E-04    3.643198E-05    2.956554E-06    1.482663E-07    4.818373E-09    1.015491E-10    1.203747E-12    5.269787E-14    1.215781E-15
  21     3.071944E-06    8.726596E-05    1.169604E-03    8.991889E-03    4.388245E-02    0.144348        0.335528        0.579873        0.792396        0.919288    
         0.972543        0.989286        0.992724        0.989667        0.989406        0.990696        0.992919        0.996345        0.998856        0.999776    
         0.999939        0.999964        0.999966        0.999963        0.999939        0.999867        0.999686        0.999354        0.998404        0.991194    
         0.945061        0.836264        0.687695        0.530559        0.378812        0.232488        0.105625        3.341605E-02    7.721411E-03    1.608498E-03
         4.096795E-04    1.083956E-04    2.267434E-05    3.120383E-06    2.428642E-07    1.090166E-08    2.973810E-10    4.767952E-12    4.175282E-14    1.010435E-15
  22     7.529674E-06    2.060700E-04    2.472536E-03    1.635883E-02    6.861728E-02    0.196472        0.405981        0.641146        0.826088        0.929800    
         0.971288        0.983985        0.979537        0.963330        0.957360        0.956701        0.965437        0.977543        0.989966        0.997134    
         0.999373        0.999748        0.999798        0.999798        0.999618        0.998824        0.996903        0.993145        0.983439        0.887419    
         0.723612        0.588698        0.492528        0.405452        0.305476        0.191995        8.985020E-02    2.808869E-02    5.859513E-03    9.548153E-04
         1.643994E-04    3.735022E-05    8.799147E-06    1.617678E-06    1.926464E-07    1.321390E-08    4.987046E-10    1.029426E-11    9.806412E-14    3.161019E-15
  23     1.920038E-05    5.411982E-04    5.715785E-03    3.045317E-02    0.105896        0.260433        0.478901        0.696470        0.852525        0.933442    
         0.965615        0.966048        0.945744        0.892434        0.856794        0.840851        0.859855        0.903274        0.937018        0.965657    
         0.988156        0.997567        0.998844        0.999174        0.998852        0.992897        0.975709        0.933020        0.789404        0.565814    
         0.633482        0.663892        0.677259        0.622127        0.504509        0.331078        0.167338        5.337936E-02    9.289184E-03    1.009103E-03
         9.908532E-05    1.214790E-05    2.195894E-06    4.503996E-07    7.198014E-08    7.357121E-09    4.346341E-10    1.348128E-11    1.755829E-13    7.297822E-15
  24     4.085181E-05    1.536877E-03    1.548180E-02    5.931955E-02    0.162435        0.337280        0.551993        0.743928        0.870075        0.929026    
         0.948209        0.927296        0.881771        0.817101        0.742937        0.733640        0.813256        0.871575        0.896562        0.904779    
         0.910487        0.950303        0.985902        0.994297        0.996564        0.975283        0.900348        0.825858        0.838071        0.918896    
         0.912061        0.902573        0.878569        0.823142        0.712952        0.529690        0.301265        0.120953        2.601492E-02    3.102210E-03
         2.681634E-04    2.185541E-05    1.986462E-06    2.063521E-07    2.277400E-08    2.196103E-09    1.453528E-10    5.692720E-12    3.106094E-13    1.921965E-14
  25     7.753378E-05    3.272837E-03    4.880431E-02    0.121425        0.246915        0.425233        0.619803        0.778208        0.870852        0.915880    
         0.909358        0.865585        0.798021        0.730978        0.716307        0.828865        0.926624        0.966251        0.982348        0.983807    
         0.983354        0.979995        0.971805        0.974947        0.987435        0.961317        0.926766        0.965195        0.988476        0.985054    
         0.980606        0.974033        0.960743        0.929701        0.856668        0.704942        0.462795        0.217171        5.416026E-02    6.918850E-03
         5.801059E-04    4.319521E-05    3.274451E-06    2.657724E-07    2.265664E-08    1.956255E-09    1.659624E-10    1.157836E-11    1.726437E-12    1.395727E-13
  26     9.186562E-04    9.748637E-03    0.153147        0.304738        0.420428        0.568430        0.679085        0.797771        0.863022        0.885806    
         0.851343        0.787910        0.714894        0.680554        0.791903        0.917702        0.975074        0.991686        0.996573        0.997202    
         0.997072        0.997151        0.998729        0.997458        0.996125        0.985287        0.988570        0.998135        0.998627        0.997611    
         0.996235        0.994039        0.989340        0.976536        0.939001        0.839381        0.633431        0.352991        0.108450        1.614019E-02
         1.374209E-03    9.364968E-05    6.277331E-06    4.424152E-07    2.660990E-08    5.310968E-09    9.593534E-10    1.477504E-10    1.733755E-11    1.205954E-12
  27     1.223236E-02    5.509817E-02    0.302930        0.524054        0.566984        0.647180        0.740312        0.796669        0.843626        0.833855    
         0.780630        0.708800        0.654009        0.712476        0.870011        0.963775        0.991716        0.997975        0.999332        0.999555    
         0.999542        0.999621        0.999858        0.999850        0.999823        0.999890        0.999566        0.999863        0.999807        0.999637    
         0.999338        0.998817        0.997543        0.993287        0.977403        0.923748        0.786891        0.511149        0.197556        3.691338E-02
         3.513174E-03    2.321435E-04    1.394907E-05    8.552234E-07    4.329149E-08    9.172506E-09    1.886474E-09    3.405454E-10    4.652564E-11    3.738961E-12
  28     8.469149E-03    6.945782E-02    0.339781        0.533309        0.652585        0.697782        0.752058        0.785209        0.805866        0.769431    
         0.704521        0.634754        0.611322        0.764764        0.918252        0.982615        0.996875        0.999429        0.999844        0.999929    
         0.999938        0.999954        0.999980        0.999979        0.999976        0.999978        0.999953        0.999982        0.999971        0.999946    
         0.999893        0.999795        0.999509        0.998290        0.992466        0.968637        0.882252        0.659108        0.320502        7.886208E-02
         9.229155E-03    6.485917E-04    3.682993E-05    1.984848E-06    8.628635E-08    1.660235E-08    3.278503E-09    5.996522E-10    8.677284E-11    7.632005E-12
  29     8.265417E-03    7.482045E-02    0.260216        0.454329        0.638153        0.702167        0.735474        0.758402        0.748054        0.697245    
         0.622884        0.549580        0.541099        0.717844        0.941589        0.990423        0.998559        0.999774        0.999951        0.999982    
         0.999991        0.999994        0.999997        0.999997        0.999996        0.999996        0.999994        0.999997        0.999995        0.999991    
         0.999983        0.999967        0.999908        0.999581        0.997650        0.986665        0.935843        0.770761        0.449880        0.143206    
         2.149442E-02    1.736984E-03    1.002907E-04    5.001307E-06    1.911229E-07    3.258601E-08    5.806103E-09    9.931061E-10    1.403046E-10    1.258889E-11
  30     9.022921E-03    5.246787E-02    0.171460        0.359297        0.576736        0.661233        0.693988        0.710911        0.681456        0.623236    
         0.540389        0.444836        0.410423        0.561021        0.871863        0.985640        0.998870        0.999816        0.999952        0.999988    
         0.999996        0.999998        0.999999        0.999999        0.999999        0.999999        0.999999        0.999999        0.999998        0.999997    
         0.999996        0.999993        0.999980        0.999888        0.999150        0.993640        0.961839        0.838521        0.553435        0.215926    
         4.128634E-02    4.025908E-03    2.524364E-04    1.235258E-05    4.328000E-07    6.573275E-08    1.036384E-08    1.593406E-09    2.087272E-10    1.811600E-11
  31     4.183780E-03    2.473932E-02    8.319600E-02    0.274685        0.460154        0.583250        0.627408        0.644193        0.607119        0.546923    
         0.456661        0.359866        0.295019        0.329891        0.635033        0.886512        0.993688        0.999482        0.999893        0.999977    
         0.999995        0.999999        0.999999         1.00000         1.00000         1.00000         1.00000        0.999999        0.999999        0.999998    
         0.999998        0.999997        0.999992        0.999957        0.999613        0.995968        0.968589        0.852049        0.580640        0.247758    
         5.544909E-02    6.460126E-03    4.641160E-04    2.433156E-05    8.522953E-07    1.213622E-07    1.739190E-08    2.411635E-09    2.888406E-10    2.374976E-11
  32     1.238647E-03    7.824137E-03    2.921775E-02    8.257353E-02    0.253825        0.412008        0.511564        0.543821        0.501133        0.437576    
         0.351918        0.271162        0.201825        0.213132        0.299041        0.529810        0.947734        0.997939        0.999712        0.999954    
         0.999992        0.999998        0.999999         1.00000         1.00000         1.00000         1.00000        0.999999        0.999999        0.999999    
         0.999998        0.999997        0.999994        0.999981        0.999822        0.994986        0.950145        0.792755        0.494731        0.189825    
         3.875691E-02    4.272935E-03    2.974156E-04    1.526325E-05    6.031127E-07    8.123192E-08    1.173878E-08    1.719718E-09    2.268884E-10    2.045452E-11
  33     2.070920E-04    1.368478E-03    4.966450E-03    1.306269E-02    4.978772E-02    0.116778        0.286369        0.343741        0.300837        0.229604    
         0.150447        0.105462        7.666546E-02    8.683697E-02    0.128691        0.223605        0.753842        0.996915        0.999493        0.999917    
         0.999985        0.999997        0.999999         1.00000         1.00000         1.00000         1.00000         1.00000        0.999999        0.999998    
         0.999997        0.999996        0.999988        0.999939        0.999320        0.990200        0.908576        0.718525        0.424728        0.158180    
         3.307731E-02    3.942126E-03    3.027538E-04    1.698491E-05    6.443128E-07    9.283030E-08    1.284168E-08    1.711924E-09    1.937986E-10    1.628816E-11
  34     2.199003E-05    1.606451E-04    5.877336E-04    1.498669E-03    3.595696E-03    4.501459E-03    7.481946E-03    4.531647E-02    4.385846E-02    2.196400E-02
         1.232647E-02    6.597991E-03    3.630560E-03    6.393697E-03    3.443606E-02    0.291246        0.922292        0.995067        0.999129        0.999834    
         0.999969        0.999994        0.999998        0.999999         1.00000         1.00000         1.00000        0.999999        0.999998        0.999997    
         0.999996        0.999994        0.999990        0.999972        0.999815        0.997194        0.976356        0.889001        0.666714        0.342078    
         9.973077E-02    1.532340E-02    1.341898E-03    7.611712E-05    2.488542E-06    2.853877E-07    2.853126E-08    2.573919E-09    2.120558E-10    1.370569E-11
  35     1.695588E-06    1.449007E-05    5.601549E-05    1.377316E-04    2.712629E-04    2.400741E-04    1.630525E-04    5.488303E-04    3.492341E-04    1.699494E-04
         1.030314E-04    7.500202E-05    1.968314E-04    3.407493E-03    0.118760        0.779415        0.955923        0.989341        0.997493        0.999473    
         0.999903        0.999983        0.999996        0.999998        0.999999        0.999999        0.999999        0.999998        0.999997        0.999995    
         0.999993        0.999990        0.999981        0.999918        0.999363        0.994563        0.967849        0.871262        0.646638        0.335308    
         0.103049        1.739200E-02    1.717230E-03    1.123236E-04    4.243392E-06    5.407730E-07    5.687691E-08    4.702703E-09    2.883694E-10    1.315570E-11
  36     1.157987E-07    1.135142E-06    4.743129E-06    1.166321E-05    2.072059E-05    1.482787E-05    7.154728E-06    1.057440E-05    2.498069E-06    9.823700E-07
         6.184227E-07    1.230355E-06    1.536415E-04    2.538662E-02    0.273060        0.627392        0.857101        0.955783        0.988582        0.997536    
         0.999569        0.999937        0.999989        0.999996        0.999998        0.999998        0.999998        0.999997        0.999996        0.999994    
         0.999990        0.999984        0.999955        0.999739        0.997985        0.986686        0.934670        0.781869        0.503918        0.211947    
         5.129117E-02    7.110986E-03    6.347176E-04    4.188220E-05    2.245127E-06    3.003609E-07    3.786450E-08    3.813825E-09    2.620379E-10    1.155600E-11
  37     7.623183E-09    8.428115E-08    3.801349E-07    9.391972E-07    1.537141E-06    9.115103E-07    3.276793E-07    2.635798E-07    3.140945E-08    6.544300E-09
         4.236706E-09    4.310254E-07    6.638025E-05    3.051544E-03    4.170950E-02    0.210254        0.519847        0.792966        0.934787        0.983278    
         0.996522        0.999430        0.999929        0.999991        0.999997        0.999998        0.999997        0.999996        0.999995        0.999993    
         0.999988        0.999963        0.999696        0.997375        0.982562        0.918399        0.745618        0.463691        0.194237        5.000333E-02
         7.848242E-03    8.213833E-04    6.547967E-05    4.488407E-06    4.180097E-07    7.459303E-08    1.475563E-08    2.169155E-09    1.876459E-10    9.018010E-12
  38     4.957789E-10    6.095041E-09    2.951278E-08    7.296467E-08    1.094280E-07    5.344857E-08    1.431585E-08    6.393277E-09    3.940203E-10    4.167058E-11
         8.182277E-11    1.249260E-08    1.032674E-06    3.791633E-05    6.060661E-04    5.432564E-03    3.828648E-02    0.190766        0.522007        0.829171    
         0.961623        0.994490        0.999522        0.999973        0.999995        0.999997        0.999997        0.999995        0.999995        0.999992    
         0.999985        0.999903        0.998753        0.987597        0.925052        0.729270        0.409370        0.145013        3.202370E-02    4.714011E-03
         5.066443E-04    4.368926E-05    3.331282E-06    2.531028E-07    3.178873E-08    1.319482E-08    4.987561E-09    9.560091E-10    1.020858E-10    6.124947E-12
  39     3.214070E-11    4.346656E-10    2.247322E-09    5.484767E-09    7.436009E-09    2.958724E-09    5.869872E-10    1.453036E-10    4.652674E-12    2.147409E-13
         5.285259E-13    5.118811E-11    3.333699E-09    1.254844E-07    2.668479E-06    4.423191E-05    8.118540E-04    1.273687E-02    0.115480        0.454306    
         0.826651        0.972435        0.998011        0.999917        0.999992        0.999996        0.999996        0.999995        0.999994        0.999992    
         0.999979        0.999751        0.995789        0.957157        0.789862        0.431463        0.126726        2.053473E-02    2.287692E-03    2.111432E-04
         1.737932E-05    1.325568E-06    9.812725E-08    9.063086E-09    1.952077E-08    6.597703E-08    1.621162E-08    1.391189E-09    1.051940E-10    7.149581E-12
  40     2.192044E-12    3.180766E-11    1.708505E-10    4.199952E-10    5.599488E-10    2.433549E-10    3.822108E-11    4.505492E-12    8.806452E-14    2.342610E-15
         5.716028E-15    7.865880E-14    5.310328E-12    2.836278E-10    1.010236E-08    3.110331E-07    1.134584E-05    4.079134E-04    1.097942E-02    0.139370    
         0.551781        0.907442        0.992814        0.999701        0.999970        0.999993        0.999996        0.999995        0.999994        0.999991    
         0.999966        0.999405        0.989339        0.896555        0.575967        0.194861        2.590206E-02    1.831781E-03    1.061201E-04    6.259899E-06
         3.842643E-07    3.582689E-08    6.074171E-08    8.244061E-08    5.711363E-07    1.207260E-06    1.488213E-07    5.797778E-09    3.573972E-10    2.779969E-11
  41     1.805470E-13    3.072076E-12    2.390065E-11    9.593298E-11    2.649535E-10    3.542661E-10    1.782897E-10    3.017455E-11    2.344815E-12    2.933161E-13
         5.359250E-13    2.236083E-15    8.641177E-15    7.486756E-13    4.938895E-11    3.399341E-09    2.801428E-07    2.205312E-05    1.110609E-03    3.001209E-02
         0.276884        0.766506        0.975887        0.998698        0.999783        0.999956        0.999995        0.999995        0.999994        0.999990    
         0.999936        0.998705        0.977763        0.809177        0.391123        8.513593E-02    9.167168E-03    3.926118E-04    1.248445E-05    3.803625E-07
         1.772138E-07    2.158483E-06    1.053062E-05    7.250837E-06    2.158695E-05    1.901431E-05    1.153656E-06    4.524185E-08    2.946902E-09    2.440431E-10
  42     4.861025E-14    1.977815E-12    4.256759E-11    4.638814E-10    2.248046E-09    4.622289E-09    3.493626E-09    1.071419E-09    1.764520E-10    5.595250E-11
         5.962435E-11    7.460982E-13    4.702419E-15    9.869139E-15    1.804603E-12    3.224228E-10    5.023724E-08    3.835704E-06    2.188579E-04    7.675897E-03
         0.117917        0.564072        0.932922        0.995781        0.999169        0.999824        0.999989        0.999995        0.999994        0.999987    
         0.999876        0.997458        0.960445        0.714444        0.277347        5.165409E-02    5.963438E-03    6.346232E-04    2.365454E-05    1.786032E-06
         2.376592E-05    4.868617E-04    1.937058E-03    6.786384E-04    6.436799E-04    2.370362E-04    7.816469E-06    3.907673E-07    2.858362E-08    2.487895E-09
  43     3.287756E-13    1.565407E-11    3.118287E-10    3.095427E-09    1.626759E-08    4.348971E-08    5.283401E-08    2.919760E-08    1.010787E-08    7.902095E-09
         4.629251E-09    3.046358E-10    3.773459E-12    2.651909E-13    4.976066E-12    9.055098E-10    1.278128E-07    3.343802E-06    1.093138E-04    3.117296E-03
         5.436617E-02    0.376546        0.856010        0.988426        0.998330        0.999776        0.999984        0.999994        0.999993        0.999981    
         0.999767        0.995501        0.938714        0.635808        0.221834        4.453744E-02    6.883678E-03    1.082885E-03    5.200438E-05    1.204055E-04
         2.153590E-03    1.110121E-02    2.837783E-02    2.005194E-02    1.070461E-02    2.071816E-03    6.000059E-05    3.683067E-06    3.049691E-07    2.767442E-08
  44     2.439576E-12    9.772469E-11    1.715479E-09    1.674113E-08    9.563658E-08    3.122185E-07    5.767527E-07    5.727810E-07    3.984989E-07    6.082099E-07
         2.168049E-07    4.917604E-08    4.097734E-09    2.082684E-10    7.386893E-11    4.930384E-09    5.407420E-07    1.090628E-05    1.847620E-04    2.693066E-03
         3.438630E-02    0.259564        0.756944        0.974892        0.996958        0.999677        0.999976        0.999993        0.999992        0.999971    
         0.999584        0.992793        0.915958        0.583710        0.217351        5.551730E-02    1.265134E-02    1.002207E-03    4.766438E-04    5.585214E-03
         2.643563E-02    7.057792E-02    0.132593        0.130161        8.319659E-02    1.323944E-02    4.360409E-04    3.927338E-05    3.800969E-06    3.555217E-07
  45     1.413401E-11    4.464148E-10    7.090374E-09    7.060569E-08    4.396311E-07    1.663720E-06    4.050093E-06    6.839840E-06    8.493041E-06    7.649757E-06
         5.669272E-06    3.000917E-06    1.070080E-06    1.658750E-07    2.207017E-08    1.785866E-08    8.216748E-07    4.203532E-05    4.765079E-04    4.693513E-03
         3.515343E-02    0.206940        0.663684        0.954311        0.994599        0.999479        0.999961        0.999992        0.999991        0.999954    
         0.999305        0.989450        0.895109        0.584866        0.259234        0.105803        2.108038E-02    4.266239E-03    1.545783E-02    5.358676E-02
         0.124233        0.217402        0.312326        0.366523        0.287682        4.734271E-02    3.463328E-03    6.058313E-04    6.795344E-05    6.258634E-06
  46     4.025712E-11    1.063108E-09    1.861299E-08    2.203996E-07    1.559540E-06    6.406916E-06    1.710993E-05    3.487767E-05    5.689131E-05    7.554386E-05
         8.345279E-05    7.754018E-05    5.615279E-05    3.002771E-05    9.538547E-06    2.359986E-06    3.903702E-06    5.784955E-05    1.079326E-03    1.320962E-02
         5.473573E-02    0.212291        0.594773        0.927401        0.990672        0.999095        0.999928        0.999987        0.999988        0.999924    
         0.998909        0.986000        0.892038        0.638124        0.432135        0.220231        8.192727E-02    8.444424E-02    0.131925        0.220198    
         0.327429        0.434263        0.528032        0.612357        0.627498        0.391558        0.102769        3.081421E-02    3.646683E-03    3.049123E-04
  47     1.246151E-11    5.045263E-10    2.840079E-08    5.555823E-07    4.664502E-06    2.212826E-05    7.264915E-05    1.827430E-04    3.676835E-04    6.076576E-04
         8.450644E-04    1.008274E-03    1.059519E-03    9.782310E-04    7.381031E-04    4.573967E-04    3.458394E-04    1.348151E-03    7.365105E-03    3.743996E-02
         0.134398        0.278693        0.594781        0.898427        0.984554        0.998335        0.999848        0.999965        0.999975        0.999870    
         0.998366        0.984164        0.911415        0.809677        0.658360        0.515988        0.409817        0.418667        0.459940        0.525408    
         0.597438        0.663616        0.718643        0.763387        0.795166        0.826006        0.632945        0.270857        2.916831E-02    1.244847E-03
  48     5.540117E-12    8.225214E-10    4.796107E-08    1.053273E-06    1.093809E-05    6.571247E-05    2.680843E-04    8.108992E-04    1.911160E-03    3.664380E-03
         5.955982E-03    8.501485E-03    1.095583E-02    1.303074E-02    1.464173E-02    1.616338E-02    1.944349E-02    3.171240E-02    6.746678E-02    0.139551    
         0.269287        0.464444        0.698468        0.879393        0.975855        0.996731        0.999588        0.999839        0.999904        0.999745    
         0.998114        0.991094        0.966722        0.923653        0.872258        0.828202        0.808838        0.804861        0.808929        0.818503    
         0.831702        0.845861        0.858645        0.869169        0.871681        0.866020        0.805548        0.525438        9.295545E-02    3.703399E-03
  49     4.797651E-12    7.257564E-10    4.755791E-08    1.321703E-06    1.859889E-05    1.495274E-04    7.714876E-04    2.778928E-03    7.460529E-03    1.591956E-02
         2.862169E-02    4.547548E-02    6.626346E-02    9.111851E-02    0.120878        0.157242        0.202695        0.260238        0.333619        0.428047    
         0.541790        0.671530        0.802230        0.906726        0.965563        0.992652        0.998358        0.999020        0.999307        0.999119    
         0.998456        0.996139        0.990109        0.980666        0.970576        0.963848        0.959353        0.955635        0.952393        0.949478    
         0.946728        0.943890        0.940549        0.935997        0.928476        0.912514        0.863460        0.694200        0.284327        2.077307E-02
  50     1.946104E-12    3.216092E-10    2.467417E-08    8.690115E-07    1.677511E-05    1.929236E-04    1.360206E-03    6.126899E-03    1.897442E-02    4.409562E-02
         8.321564E-02    0.135355        0.197827        0.267339        0.340698        0.415169        0.488581        0.559353        0.626617        0.691053    
         0.754600        0.816058        0.872594        0.920025        0.955390        0.980679        0.992099        0.993681        0.994238        0.994805    
         0.994713        0.994225        0.993241        0.991769        0.990111        0.988627        0.987050        0.985300        0.983318        0.981025    
         0.978305        0.974966        0.970665        0.964710        0.955365        0.936754        0.885448        0.723864        0.340101        4.133407E-02

 CONCENTRATION WILL BE SAVED ON UNIT 1031 AT END OF TIME STEP  200, STRESS PERIOD    2


  MASS BUDGET FOR ENTIRE MODEL AT END OF TIME STEP  200, STRESS PERIOD   2
  ---------------------------------------------------------------------------------------------------

     CUMULATIVE MASS      M       RATES FOR THIS TIME STEP      M/T          PACKAGE NAME    
     ------------------                 ------------------------                     ----------------

           IN:                                      IN:
           ---                                      ---
     STORAGE-AQUEOUS =       2.5566E-05       STORAGE-AQUEOUS =       4.4384E-14     MST                              
                 WEL =           0.0000                   WEL =           0.0000     SSM_WEL1                         
                 WEL =           0.3000                   WEL =       5.0000E-04     SSM_WEL2                         

            TOTAL IN =           0.3000              TOTAL IN =       5.0000E-04

          OUT:                                     OUT:
          ----                                     ----
     STORAGE-AQUEOUS =           0.1211       STORAGE-AQUEOUS =       9.9286E-05     MST                              
                 WEL =           0.1790                   WEL =       4.0072E-04     SSM_WEL1                         
                 WEL =           0.0000                   WEL =           0.0000     SSM_WEL2                         

           TOTAL OUT =           0.3000             TOTAL OUT =       5.0000E-04

            IN - OUT =      -3.9348E-06              IN - OUT =      -3.5467E-09

 PERCENT DISCREPANCY =          -0.00     PERCENT DISCREPANCY =          -0.00




         TIME SUMMARY AT END OF TIME STEP  200 IN STRESS PERIOD    2
                    SECONDS     MINUTES      HOURS       DAYS        YEARS
                    -----------------------------------------------------------
   TIME STEP LENGTH 1.72800E+05  2880.0      48.000      2.0000     5.47570E-03
 STRESS PERIOD TIME 3.45600E+07 5.76000E+05  9600.0      400.00      1.0951    
         TOTAL TIME 5.18400E+07 8.64000E+05  14400.      600.00      1.6427    


end timestep

