                                   MODFLOW 6
                U.S. GEOLOGICAL SURVEY MODULAR HYDROLOGIC MODEL
                          GROUNDWATER FLOW MODEL (GWF)
                        VERSION 6.4.1 Release 12/09/2022

   MODFLOW 6 compiled Dec 09 2022 18:18:37 with Intel(R) Fortran Intel(R) 64
   Compiler Classic for applications running on Intel(R) 64, Version 2021.7.0
                             Build 20220726_000000

This software has been approved for release by the U.S. Geological 
Survey (USGS). Although the software has been subjected to rigorous 
review, the USGS reserves the right to update the software as needed 
pursuant to further analysis and review. No warranty, expressed or 
implied, is made by the USGS or the U.S. Government as to the 
functionality of the software and related material nor shall the 
fact of release constitute any such warranty. Furthermore, the 
software is released on condition that neither the USGS nor the U.S. 
Government shall be held liable for any damages resulting from its 
authorized or unauthorized use. Also refer to the USGS Water 
Resources Software User Rights Notice for complete use, copyright, 
and distribution information.


As a work of the United States Government, this USGS product is 
in the public domain within the United States. You can copy, 
modify, distribute, and perform the work, even for commercial 
purposes, all without asking permission. Additionally, USGS 
waives copyright and related rights in the work worldwide 
through CC0 1.0 Universal Public Domain Dedication 
(https://creativecommons.org/publicdomain/zero/1.0/).

The following GNU Lesser General Public License (LGPL) libraries
are used in this USGS product:

    SPARSKIT version 2.0
      ilut, luson, and qsplit 
      (https://www-users.cse.umn.edu/~saad/software/SPARSKIT/)

    RCM - Reverse Cuthill McKee Ordering
      (https://people.math.sc.edu/Burkardt/f_src/rcm/rcm.html)

    BLAS - Basic Linear Algebra Subprograms Level 1
      (https://people.math.sc.edu/Burkardt/f_src/blas1_d/blas1_d.html)

    SPARSEKIT - Sparse Matrix Utility Package
      amux, dperm, dvperm, rperm, and cperm
      (https://people.sc.fsu.edu/~jburkardt/f77_src/sparsekit/sparsekit.html)

The following BSD-3 License libraries are used in this USGS product:

    Modern Fortran DAG Library
      Copyright (c) 2018, Jacob Williams
      All rights reserved.
      (https://github.com/jacobwilliams/daglib)

MODFLOW 6 compiler options: /Isrc\libmf6core.a.p /Isrc /I..\src
/Isrc\libmf6_external.a.p /MTd /nologo /warn:general /warn:truncated_source
/stand:f08 /Zi /traceback /O2 /fpe:0 /heap-arrays:0 /traceback /fpp
/Qdiag-disable:7416 /Qdiag-disable:7025 /Qdiag-disable:5268
/Fdsrc\libmf6core.a.p\Utilities_compilerversion.F90.pdb
/module:src\libmf6core.a.p
/Fosrc/libmf6core.a.p/Utilities_compilerversion.F90.obj /c

System command used to initiate simulation:
mf6

MODFLOW was compiled using uniform precision.

Real Variables
  KIND: 8
  TINY (smallest non-zero value):    2.225074-308
  HUGE (largest value):    1.797693+308
  PRECISION: 15
  SIZE IN BITS: 64

Integer Variables
  KIND: 4
  HUGE (largest value): 2147483647
  SIZE IN BITS: 32

Long Integer Variables
  KIND: 8
  HUGE (largest value): 9223372036854775807
  SIZE IN BITS: 64

Logical Variables
  KIND: 4
  SIZE IN BITS: 32
 

 OPENED sva_tm.dis
 FILE TYPE:DIS6                   UNIT 1005   STATUS:OLD                 
 FORMAT:FORMATTED              ACCESS:SEQUENTIAL          
 ACTION:READ                


 OPENED sva_tm.wel1
 FILE TYPE:WEL6                   UNIT 1006   STATUS:OLD                 
 FORMAT:FORMATTED              ACCESS:SEQUENTIAL          
 ACTION:READ                


 OPENED sva_tm.wel2
 FILE TYPE:WEL6                   UNIT 1007   STATUS:OLD                 
 FORMAT:FORMATTED              ACCESS:SEQUENTIAL          
 ACTION:READ                


 OPENED sva_tm.npf
 FILE TYPE:NPF6                   UNIT 1008   STATUS:OLD                 
 FORMAT:FORMATTED              ACCESS:SEQUENTIAL          
 ACTION:READ                


 OPENED sva_tm.sto
 FILE TYPE:STO6                   UNIT 1009   STATUS:OLD                 
 FORMAT:FORMATTED              ACCESS:SEQUENTIAL          
 ACTION:READ                


 OPENED sva_tm.ic
 FILE TYPE:IC6                    UNIT 1010   STATUS:OLD                 
 FORMAT:FORMATTED              ACCESS:SEQUENTIAL          
 ACTION:READ                


 OPENED sva_tm.oc
 FILE TYPE:OC6                    UNIT 1011   STATUS:OLD                 
 FORMAT:FORMATTED              ACCESS:SEQUENTIAL          
 ACTION:READ                


 DIS -- STRUCTURED GRID DISCRETIZATION PACKAGE, VERSION 2 : 3/27/2014 - INPUT READ FROM UNIT 1005

 Loading input for SVA_TM/DIS
 # File generated by Flopy version 3.3.6 on 08/18/2023 at 12:51:25.
   NLAY = 1
   NROW = 50
   NCOL = 50
   DELR = .2000000000000000E-01
   DELC = .2000000000000000E-01
   TOP = .000000000000000
   BOTM = -1.000000000000000
 Loading input complete...


 NPF -- NODE PROPERTY FLOW PACKAGE, VERSION 1, 3/30/2015 INPUT READ FROM UNIT 1008

 Loading input for SVA_TM/NPF
 # File generated by Flopy version 3.3.6 on 08/18/2023 at 12:51:25.
   IPAKCB = 1
   ICELLTYPE = 0
   K = variable 1D double precision array ranging from .4743300000000000E-02 to 32.08500000000000
   K33 = variable 1D double precision array ranging from .4743300000000000E-02 to 32.08500000000000
 Loading input complete...

 Setting Discretization Options
 End Setting Discretization Options

 Setting Discretization Dimensions
    NLAY = 1
    NROW = 50
    NCOL = 50
 End Setting Discretization Dimensions

 Setting Discretization Griddata
    DELR set from input file
    DELC set from input file
    TOP set from input file
    BOTM set from input file
 End Setting Discretization Griddata

 Setting NPF Options
    Cell-by-cell flow information will be saved to binary file whenever ICBCFL is not zero.
 End Setting NPF Options

 Setting NPF Griddata
    ICELLTYPE set from input file
    K set from input file
    K33 set from input file
    K22 not provided.  Setting K22 = K.
 End Setting NPF Griddata


 WEL   -- WEL PACKAGE, VERSION 8, 2/22/2014 INPUT READ FROM UNIT 1006
 # File generated by Flopy version 3.3.6 on 08/18/2023 at 12:51:25.

 PROCESSING WEL OPTIONS
    AUXILIARY WEL VARIABLE: CONCENTRATION   
    LISTS OF WEL CELLS WILL BE PRINTED.
    WEL FLOWS WILL BE PRINTED TO LISTING FILE.
 END OF WEL OPTIONS

 PROCESSING WEL DIMENSIONS
    MAXBOUND =      10
 END OF WEL DIMENSIONS

 WEL   -- WEL PACKAGE, VERSION 8, 2/22/2014 INPUT READ FROM UNIT 1007
 # File generated by Flopy version 3.3.6 on 08/18/2023 at 12:51:25.

 PROCESSING WEL OPTIONS
    AUXILIARY WEL VARIABLE: CONCENTRATION   
    LISTS OF WEL CELLS WILL BE PRINTED.
    WEL FLOWS WILL BE PRINTED TO LISTING FILE.
 END OF WEL OPTIONS

 PROCESSING WEL DIMENSIONS
    MAXBOUND =       2
 END OF WEL DIMENSIONS

 IC -- INITIAL CONDITIONS PACKAGE, VERSION 8, 3/28/2015 INPUT READ FROM UNIT 1010
 # File generated by Flopy version 3.3.6 on 08/18/2023 at 12:51:25.
 PROCESSING GRIDDATA

     INITIAL HEAD =   1.000000    
 END PROCESSING GRIDDATA

 STO -- STORAGE PACKAGE, VERSION 1, 5/19/2014 INPUT READ FROM UNIT 1009


 # File generated by Flopy version 3.3.6 on 08/18/2023 at 12:51:25.
 PROCESSING STORAGE OPTIONS
    CELL-BY-CELL FLOW INFORMATION WILL BE SAVED TO BINARY FILE WHENEVER ICBCFL IS NOT ZERO.
 END OF STORAGE OPTIONS
 PROCESSING GRIDDATA

                 ICONVERT = 0

         SPECIFIC STORAGE =   0.000000    

           SPECIFIC YIELD =   0.000000    
 END PROCESSING GRIDDATA
    BINARY GRID INFORMATION WILL BE WRITTEN TO:
      UNIT NUMBER: 1026
      FILE NAME: C:\Workspace\opaz0002\Github\Spatial-varying anisotropy\history-matching\cal1a_ies\sva_tm.dis.grb

 OPENED C:\Workspace\opaz0002\Github\Spatial-varying anisotropy\history-matching\cal1a_ies\sva_tm.dis.grb
 FILE TYPE:DATA(BINARY)   UNIT 1026   STATUS:REPLACE             
 FORMAT:UNFORMATTED            ACCESS:STREAM              
 ACTION:READWRITE           

      THE LAST TIME STEP WILL BE PRINTED
      THE LAST TIME STEP WILL BE PRINTED
 # File generated by Flopy version 3.3.6 on 08/18/2023 at 12:51:25.

 PROCESSING OC OPTIONS

    BUDGET INFORMATION WILL BE WRITTEN TO:
      UNIT NUMBER: 1027
      FILE NAME: sva_tm.bud

 OPENED sva_tm.bud
 FILE TYPE:DATA(BINARY)   UNIT 1027   STATUS:REPLACE             
 FORMAT:UNFORMATTED            ACCESS:STREAM              
 ACTION:READWRITE           

    HEAD INFORMATION WILL BE WRITTEN TO:
      UNIT NUMBER: 1028
      FILE NAME: sva_tm.hds

 OPENED sva_tm.hds
 FILE TYPE:DATA(BINARY)   UNIT 1028   STATUS:REPLACE             
 FORMAT:UNFORMATTED            ACCESS:STREAM              
 ACTION:READWRITE           

 END OF OC OPTIONS

start timestep kper="1" kstp="1" mode="normal"


 BEGIN READING OUTPUT CONTROL FOR STRESS PERIOD 1
      ALL TIME STEPS WILL BE SAVED
      ALL TIME STEPS WILL BE SAVED
      ALL TIME STEPS WILL BE PRINTED

 END READING OUTPUT CONTROL FOR STRESS PERIOD 1


 STRESS PERIOD 1 IS TRANSIENT

 --------------------------------------------------------------------
  WEL NO.    LAYER    ROW     COL     STRESS RATE     CONCENTRATION  
 --------------------------------------------------------------------
     1         1      17      17    -7.142857140E-05  0.00000000     
     2         1      33      17    -7.142857140E-05  0.00000000     
     3         1       9      26    -7.142857140E-05  0.00000000     
     4         1      17      35    -7.142857140E-05  0.00000000     
     5         1      33      35    -7.142857140E-05  0.00000000     
     6         1      26      26    -7.142857140E-05  0.00000000     
     7         1      41      26    -7.142857140E-05  0.00000000     
 --------------------------------------------------------------------


 --------------------------------------------------------------------
  WEL NO.    LAYER    ROW     COL     STRESS RATE     CONCENTRATION  
 --------------------------------------------------------------------
     1         1      17      26     2.500000000E-04  1.00000000     
     2         1      33      26     2.500000000E-04  1.00000000     
 --------------------------------------------------------------------


 UBDSV1 SAVING           STO-SS ON UNIT   1027 AT TIME STEP      1, STRESS PERIOD      1
 UBDSV1 SAVING     FLOW-JA-FACE ON UNIT   1027 AT TIME STEP      1, STRESS PERIOD      1

 WEL PACKAGE (WEL1) FLOW RATES   PERIOD      1   STEP        1
 -----------------------------------------------
   NUMBER   CELLID                    RATE      
 -----------------------------------------------
     1      (1,17,17)            -7.14285714E-05
     2      (1,33,17)            -7.14285714E-05
     3      (1,9,26)             -7.14285714E-05
     4      (1,17,35)            -7.14285714E-05
     5      (1,33,35)            -7.14285714E-05
     6      (1,26,26)            -7.14285714E-05
     7      (1,41,26)            -7.14285714E-05
 -----------------------------------------------




 WEL PACKAGE (WEL2) FLOW RATES   PERIOD      1   STEP        1
 -----------------------------------------------
   NUMBER   CELLID                    RATE      
 -----------------------------------------------
     1      (1,17,26)             2.50000000E-04
     2      (1,33,26)             2.50000000E-04
 -----------------------------------------------




 HEAD WILL BE SAVED ON UNIT 1028 AT END OF TIME STEP    1, STRESS PERIOD    1


  VOLUME BUDGET FOR ENTIRE MODEL AT END OF TIME STEP    1, STRESS PERIOD   1
  ---------------------------------------------------------------------------------------------------

     CUMULATIVE VOLUME      L**3       RATES FOR THIS TIME STEP      L**3/T          PACKAGE NAME    
     ------------------                 ------------------------                     ----------------

           IN:                                      IN:
           ---                                      ---
              STO-SS =           0.0000                STO-SS =           0.0000     STORAGE                          
                 WEL =           0.0000                   WEL =           0.0000     WEL1                             
                 WEL =       1.0000E-03                   WEL =       5.0000E-04     WEL2                             

            TOTAL IN =       1.0000E-03              TOTAL IN =       5.0000E-04

          OUT:                                     OUT:
          ----                                     ----
              STO-SS =           0.0000                STO-SS =           0.0000     STORAGE                          
                 WEL =       1.0000E-03                   WEL =       5.0000E-04     WEL1                             
                 WEL =           0.0000                   WEL =           0.0000     WEL2                             

           TOTAL OUT =       1.0000E-03             TOTAL OUT =       5.0000E-04

            IN - OUT =       4.0000E-13              IN - OUT =       2.0000E-13

 PERCENT DISCREPANCY =           0.00     PERCENT DISCREPANCY =           0.00




         TIME SUMMARY AT END OF TIME STEP    1 IN STRESS PERIOD    1
                    SECONDS     MINUTES      HOURS       DAYS        YEARS
                    -----------------------------------------------------------
   TIME STEP LENGTH 1.72800E+05  2880.0      48.000      2.0000     5.47570E-03
 STRESS PERIOD TIME 1.72800E+05  2880.0      48.000      2.0000     5.47570E-03
         TOTAL TIME 1.72800E+05  2880.0      48.000      2.0000     5.47570E-03


end timestep


start timestep kper="1" kstp="2" mode="normal"

 UBDSV1 SAVING           STO-SS ON UNIT   1027 AT TIME STEP      2, STRESS PERIOD      1
 UBDSV1 SAVING     FLOW-JA-FACE ON UNIT   1027 AT TIME STEP      2, STRESS PERIOD      1

 WEL PACKAGE (WEL1) FLOW RATES   PERIOD      1   STEP        2
 -----------------------------------------------
   NUMBER   CELLID                    RATE      
 -----------------------------------------------
     1      (1,17,17)            -7.14285714E-05
     2      (1,33,17)            -7.14285714E-05
     3      (1,9,26)             -7.14285714E-05
     4      (1,17,35)            -7.14285714E-05
     5      (1,33,35)            -7.14285714E-05
     6      (1,26,26)            -7.14285714E-05
     7      (1,41,26)            -7.14285714E-05
 -----------------------------------------------




 WEL PACKAGE (WEL2) FLOW RATES   PERIOD      1   STEP        2
 -----------------------------------------------
   NUMBER   CELLID                    RATE      
 -----------------------------------------------
     1      (1,17,26)             2.50000000E-04
     2      (1,33,26)             2.50000000E-04
 -----------------------------------------------




 HEAD WILL BE SAVED ON UNIT 1028 AT END OF TIME STEP    2, STRESS PERIOD    1


  VOLUME BUDGET FOR ENTIRE MODEL AT END OF TIME STEP    2, STRESS PERIOD   1
  ---------------------------------------------------------------------------------------------------

     CUMULATIVE VOLUME      L**3       RATES FOR THIS TIME STEP      L**3/T          PACKAGE NAME    
     ------------------                 ------------------------                     ----------------

           IN:                                      IN:
           ---                                      ---
              STO-SS =           0.0000                STO-SS =           0.0000     STORAGE                          
                 WEL =           0.0000                   WEL =           0.0000     WEL1                             
                 WEL =       2.0000E-03                   WEL =       5.0000E-04     WEL2                             

            TOTAL IN =       2.0000E-03              TOTAL IN =       5.0000E-04

          OUT:                                     OUT:
          ----                                     ----
              STO-SS =           0.0000                STO-SS =           0.0000     STORAGE                          
                 WEL =       2.0000E-03                   WEL =       5.0000E-04     WEL1                             
                 WEL =           0.0000                   WEL =           0.0000     WEL2                             

           TOTAL OUT =       2.0000E-03             TOTAL OUT =       5.0000E-04

            IN - OUT =       8.0000E-13              IN - OUT =       2.0000E-13

 PERCENT DISCREPANCY =           0.00     PERCENT DISCREPANCY =           0.00




         TIME SUMMARY AT END OF TIME STEP    2 IN STRESS PERIOD    1
                    SECONDS     MINUTES      HOURS       DAYS        YEARS
                    -----------------------------------------------------------
   TIME STEP LENGTH 1.72800E+05  2880.0      48.000      2.0000     5.47570E-03
 STRESS PERIOD TIME 3.45600E+05  5760.0      96.000      4.0000     1.09514E-02
         TOTAL TIME 3.45600E+05  5760.0      96.000      4.0000     1.09514E-02


end timestep


start timestep kper="1" kstp="3" mode="normal"

 UBDSV1 SAVING           STO-SS ON UNIT   1027 AT TIME STEP      3, STRESS PERIOD      1
 UBDSV1 SAVING     FLOW-JA-FACE ON UNIT   1027 AT TIME STEP      3, STRESS PERIOD      1

 WEL PACKAGE (WEL1) FLOW RATES   PERIOD      1   STEP        3
 -----------------------------------------------
   NUMBER   CELLID                    RATE      
 -----------------------------------------------
     1      (1,17,17)            -7.14285714E-05
     2      (1,33,17)            -7.14285714E-05
     3      (1,9,26)             -7.14285714E-05
     4      (1,17,35)            -7.14285714E-05
     5      (1,33,35)            -7.14285714E-05
     6      (1,26,26)            -7.14285714E-05
     7      (1,41,26)            -7.14285714E-05
 -----------------------------------------------




 WEL PACKAGE (WEL2) FLOW RATES   PERIOD      1   STEP        3
 -----------------------------------------------
   NUMBER   CELLID                    RATE      
 -----------------------------------------------
     1      (1,17,26)             2.50000000E-04
     2      (1,33,26)             2.50000000E-04
 -----------------------------------------------




 HEAD WILL BE SAVED ON UNIT 1028 AT END OF TIME STEP    3, STRESS PERIOD    1


  VOLUME BUDGET FOR ENTIRE MODEL AT END OF TIME STEP    3, STRESS PERIOD   1
  ---------------------------------------------------------------------------------------------------

     CUMULATIVE VOLUME      L**3       RATES FOR THIS TIME STEP      L**3/T          PACKAGE NAME    
     ------------------                 ------------------------                     ----------------

           IN:                                      IN:
           ---                                      ---
              STO-SS =           0.0000                STO-SS =           0.0000     STORAGE                          
                 WEL =           0.0000                   WEL =           0.0000     WEL1                             
                 WEL =       3.0000E-03                   WEL =       5.0000E-04     WEL2                             

            TOTAL IN =       3.0000E-03              TOTAL IN =       5.0000E-04

          OUT:                                     OUT:
          ----                                     ----
              STO-SS =           0.0000                STO-SS =           0.0000     STORAGE                          
                 WEL =       3.0000E-03                   WEL =       5.0000E-04     WEL1                             
                 WEL =           0.0000                   WEL =           0.0000     WEL2                             

           TOTAL OUT =       3.0000E-03             TOTAL OUT =       5.0000E-04

            IN - OUT =       1.2000E-12              IN - OUT =       2.0000E-13

 PERCENT DISCREPANCY =           0.00     PERCENT DISCREPANCY =           0.00




         TIME SUMMARY AT END OF TIME STEP    3 IN STRESS PERIOD    1
                    SECONDS     MINUTES      HOURS       DAYS        YEARS
                    -----------------------------------------------------------
   TIME STEP LENGTH 1.72800E+05  2880.0      48.000      2.0000     5.47570E-03
 STRESS PERIOD TIME 5.18400E+05  8640.0      144.00      6.0000     1.64271E-02
         TOTAL TIME 5.18400E+05  8640.0      144.00      6.0000     1.64271E-02


end timestep


start timestep kper="1" kstp="4" mode="normal"

 UBDSV1 SAVING           STO-SS ON UNIT   1027 AT TIME STEP      4, STRESS PERIOD      1
 UBDSV1 SAVING     FLOW-JA-FACE ON UNIT   1027 AT TIME STEP      4, STRESS PERIOD      1

 WEL PACKAGE (WEL1) FLOW RATES   PERIOD      1   STEP        4
 -----------------------------------------------
   NUMBER   CELLID                    RATE      
 -----------------------------------------------
     1      (1,17,17)            -7.14285714E-05
     2      (1,33,17)            -7.14285714E-05
     3      (1,9,26)             -7.14285714E-05
     4      (1,17,35)            -7.14285714E-05
     5      (1,33,35)            -7.14285714E-05
     6      (1,26,26)            -7.14285714E-05
     7      (1,41,26)            -7.14285714E-05
 -----------------------------------------------




 WEL PACKAGE (WEL2) FLOW RATES   PERIOD      1   STEP        4
 -----------------------------------------------
   NUMBER   CELLID                    RATE      
 -----------------------------------------------
     1      (1,17,26)             2.50000000E-04
     2      (1,33,26)             2.50000000E-04
 -----------------------------------------------




 HEAD WILL BE SAVED ON UNIT 1028 AT END OF TIME STEP    4, STRESS PERIOD    1


  VOLUME BUDGET FOR ENTIRE MODEL AT END OF TIME STEP    4, STRESS PERIOD   1
  ---------------------------------------------------------------------------------------------------

     CUMULATIVE VOLUME      L**3       RATES FOR THIS TIME STEP      L**3/T          PACKAGE NAME    
     ------------------                 ------------------------                     ----------------

           IN:                                      IN:
           ---                                      ---
              STO-SS =           0.0000                STO-SS =           0.0000     STORAGE                          
                 WEL =           0.0000                   WEL =           0.0000     WEL1                             
                 WEL =       4.0000E-03                   WEL =       5.0000E-04     WEL2                             

            TOTAL IN =       4.0000E-03              TOTAL IN =       5.0000E-04

          OUT:                                     OUT:
          ----                                     ----
              STO-SS =           0.0000                STO-SS =           0.0000     STORAGE                          
                 WEL =       4.0000E-03                   WEL =       5.0000E-04     WEL1                             
                 WEL =           0.0000                   WEL =           0.0000     WEL2                             

           TOTAL OUT =       4.0000E-03             TOTAL OUT =       5.0000E-04

            IN - OUT =       1.6000E-12              IN - OUT =       2.0000E-13

 PERCENT DISCREPANCY =           0.00     PERCENT DISCREPANCY =           0.00




         TIME SUMMARY AT END OF TIME STEP    4 IN STRESS PERIOD    1
                    SECONDS     MINUTES      HOURS       DAYS        YEARS
                    -----------------------------------------------------------
   TIME STEP LENGTH 1.72800E+05  2880.0      48.000      2.0000     5.47570E-03
 STRESS PERIOD TIME 6.91200E+05  11520.      192.00      8.0000     2.19028E-02
         TOTAL TIME 6.91200E+05  11520.      192.00      8.0000     2.19028E-02


end timestep


start timestep kper="1" kstp="5" mode="normal"

 UBDSV1 SAVING           STO-SS ON UNIT   1027 AT TIME STEP      5, STRESS PERIOD      1
 UBDSV1 SAVING     FLOW-JA-FACE ON UNIT   1027 AT TIME STEP      5, STRESS PERIOD      1

 WEL PACKAGE (WEL1) FLOW RATES   PERIOD      1   STEP        5
 -----------------------------------------------
   NUMBER   CELLID                    RATE      
 -----------------------------------------------
     1      (1,17,17)            -7.14285714E-05
     2      (1,33,17)            -7.14285714E-05
     3      (1,9,26)             -7.14285714E-05
     4      (1,17,35)            -7.14285714E-05
     5      (1,33,35)            -7.14285714E-05
     6      (1,26,26)            -7.14285714E-05
     7      (1,41,26)            -7.14285714E-05
 -----------------------------------------------




 WEL PACKAGE (WEL2) FLOW RATES   PERIOD      1   STEP        5
 -----------------------------------------------
   NUMBER   CELLID                    RATE      
 -----------------------------------------------
     1      (1,17,26)             2.50000000E-04
     2      (1,33,26)             2.50000000E-04
 -----------------------------------------------




 HEAD WILL BE SAVED ON UNIT 1028 AT END OF TIME STEP    5, STRESS PERIOD    1


  VOLUME BUDGET FOR ENTIRE MODEL AT END OF TIME STEP    5, STRESS PERIOD   1
  ---------------------------------------------------------------------------------------------------

     CUMULATIVE VOLUME      L**3       RATES FOR THIS TIME STEP      L**3/T          PACKAGE NAME    
     ------------------                 ------------------------                     ----------------

           IN:                                      IN:
           ---                                      ---
              STO-SS =           0.0000                STO-SS =           0.0000     STORAGE                          
                 WEL =           0.0000                   WEL =           0.0000     WEL1                             
                 WEL =       5.0000E-03                   WEL =       5.0000E-04     WEL2                             

            TOTAL IN =       5.0000E-03              TOTAL IN =       5.0000E-04

          OUT:                                     OUT:
          ----                                     ----
              STO-SS =           0.0000                STO-SS =           0.0000     STORAGE                          
                 WEL =       5.0000E-03                   WEL =       5.0000E-04     WEL1                             
                 WEL =           0.0000                   WEL =           0.0000     WEL2                             

           TOTAL OUT =       5.0000E-03             TOTAL OUT =       5.0000E-04

            IN - OUT =       2.0000E-12              IN - OUT =       2.0000E-13

 PERCENT DISCREPANCY =           0.00     PERCENT DISCREPANCY =           0.00




         TIME SUMMARY AT END OF TIME STEP    5 IN STRESS PERIOD    1
                    SECONDS     MINUTES      HOURS       DAYS        YEARS
                    -----------------------------------------------------------
   TIME STEP LENGTH 1.72800E+05  2880.0      48.000      2.0000     5.47570E-03
 STRESS PERIOD TIME 8.64000E+05  14400.      240.00      10.000     2.73785E-02
         TOTAL TIME 8.64000E+05  14400.      240.00      10.000     2.73785E-02


end timestep


start timestep kper="1" kstp="6" mode="normal"

 UBDSV1 SAVING           STO-SS ON UNIT   1027 AT TIME STEP      6, STRESS PERIOD      1
 UBDSV1 SAVING     FLOW-JA-FACE ON UNIT   1027 AT TIME STEP      6, STRESS PERIOD      1

 WEL PACKAGE (WEL1) FLOW RATES   PERIOD      1   STEP        6
 -----------------------------------------------
   NUMBER   CELLID                    RATE      
 -----------------------------------------------
     1      (1,17,17)            -7.14285714E-05
     2      (1,33,17)            -7.14285714E-05
     3      (1,9,26)             -7.14285714E-05
     4      (1,17,35)            -7.14285714E-05
     5      (1,33,35)            -7.14285714E-05
     6      (1,26,26)            -7.14285714E-05
     7      (1,41,26)            -7.14285714E-05
 -----------------------------------------------




 WEL PACKAGE (WEL2) FLOW RATES   PERIOD      1   STEP        6
 -----------------------------------------------
   NUMBER   CELLID                    RATE      
 -----------------------------------------------
     1      (1,17,26)             2.50000000E-04
     2      (1,33,26)             2.50000000E-04
 -----------------------------------------------




 HEAD WILL BE SAVED ON UNIT 1028 AT END OF TIME STEP    6, STRESS PERIOD    1


  VOLUME BUDGET FOR ENTIRE MODEL AT END OF TIME STEP    6, STRESS PERIOD   1
  ---------------------------------------------------------------------------------------------------

     CUMULATIVE VOLUME      L**3       RATES FOR THIS TIME STEP      L**3/T          PACKAGE NAME    
     ------------------                 ------------------------                     ----------------

           IN:                                      IN:
           ---                                      ---
              STO-SS =           0.0000                STO-SS =           0.0000     STORAGE                          
                 WEL =           0.0000                   WEL =           0.0000     WEL1                             
                 WEL =       6.0000E-03                   WEL =       5.0000E-04     WEL2                             

            TOTAL IN =       6.0000E-03              TOTAL IN =       5.0000E-04

          OUT:                                     OUT:
          ----                                     ----
              STO-SS =           0.0000                STO-SS =           0.0000     STORAGE                          
                 WEL =       6.0000E-03                   WEL =       5.0000E-04     WEL1                             
                 WEL =           0.0000                   WEL =           0.0000     WEL2                             

           TOTAL OUT =       6.0000E-03             TOTAL OUT =       5.0000E-04

            IN - OUT =       2.4000E-12              IN - OUT =       2.0000E-13

 PERCENT DISCREPANCY =           0.00     PERCENT DISCREPANCY =           0.00




         TIME SUMMARY AT END OF TIME STEP    6 IN STRESS PERIOD    1
                    SECONDS     MINUTES      HOURS       DAYS        YEARS
                    -----------------------------------------------------------
   TIME STEP LENGTH 1.72800E+05  2880.0      48.000      2.0000     5.47570E-03
 STRESS PERIOD TIME 1.03680E+06  17280.      288.00      12.000     3.28542E-02
         TOTAL TIME 1.03680E+06  17280.      288.00      12.000     3.28542E-02


end timestep


start timestep kper="1" kstp="7" mode="normal"

 UBDSV1 SAVING           STO-SS ON UNIT   1027 AT TIME STEP      7, STRESS PERIOD      1
 UBDSV1 SAVING     FLOW-JA-FACE ON UNIT   1027 AT TIME STEP      7, STRESS PERIOD      1

 WEL PACKAGE (WEL1) FLOW RATES   PERIOD      1   STEP        7
 -----------------------------------------------
   NUMBER   CELLID                    RATE      
 -----------------------------------------------
     1      (1,17,17)            -7.14285714E-05
     2      (1,33,17)            -7.14285714E-05
     3      (1,9,26)             -7.14285714E-05
     4      (1,17,35)            -7.14285714E-05
     5      (1,33,35)            -7.14285714E-05
     6      (1,26,26)            -7.14285714E-05
     7      (1,41,26)            -7.14285714E-05
 -----------------------------------------------




 WEL PACKAGE (WEL2) FLOW RATES   PERIOD      1   STEP        7
 -----------------------------------------------
   NUMBER   CELLID                    RATE      
 -----------------------------------------------
     1      (1,17,26)             2.50000000E-04
     2      (1,33,26)             2.50000000E-04
 -----------------------------------------------




 HEAD WILL BE SAVED ON UNIT 1028 AT END OF TIME STEP    7, STRESS PERIOD    1


  VOLUME BUDGET FOR ENTIRE MODEL AT END OF TIME STEP    7, STRESS PERIOD   1
  ---------------------------------------------------------------------------------------------------

     CUMULATIVE VOLUME      L**3       RATES FOR THIS TIME STEP      L**3/T          PACKAGE NAME    
     ------------------                 ------------------------                     ----------------

           IN:                                      IN:
           ---                                      ---
              STO-SS =           0.0000                STO-SS =           0.0000     STORAGE                          
                 WEL =           0.0000                   WEL =           0.0000     WEL1                             
                 WEL =       7.0000E-03                   WEL =       5.0000E-04     WEL2                             

            TOTAL IN =       7.0000E-03              TOTAL IN =       5.0000E-04

          OUT:                                     OUT:
          ----                                     ----
              STO-SS =           0.0000                STO-SS =           0.0000     STORAGE                          
                 WEL =       7.0000E-03                   WEL =       5.0000E-04     WEL1                             
                 WEL =           0.0000                   WEL =           0.0000     WEL2                             

           TOTAL OUT =       7.0000E-03             TOTAL OUT =       5.0000E-04

            IN - OUT =       2.8000E-12              IN - OUT =       2.0000E-13

 PERCENT DISCREPANCY =           0.00     PERCENT DISCREPANCY =           0.00




         TIME SUMMARY AT END OF TIME STEP    7 IN STRESS PERIOD    1
                    SECONDS     MINUTES      HOURS       DAYS        YEARS
                    -----------------------------------------------------------
   TIME STEP LENGTH 1.72800E+05  2880.0      48.000      2.0000     5.47570E-03
 STRESS PERIOD TIME 1.20960E+06  20160.      336.00      14.000     3.83299E-02
         TOTAL TIME 1.20960E+06  20160.      336.00      14.000     3.83299E-02


end timestep


start timestep kper="1" kstp="8" mode="normal"

 UBDSV1 SAVING           STO-SS ON UNIT   1027 AT TIME STEP      8, STRESS PERIOD      1
 UBDSV1 SAVING     FLOW-JA-FACE ON UNIT   1027 AT TIME STEP      8, STRESS PERIOD      1

 WEL PACKAGE (WEL1) FLOW RATES   PERIOD      1   STEP        8
 -----------------------------------------------
   NUMBER   CELLID                    RATE      
 -----------------------------------------------
     1      (1,17,17)            -7.14285714E-05
     2      (1,33,17)            -7.14285714E-05
     3      (1,9,26)             -7.14285714E-05
     4      (1,17,35)            -7.14285714E-05
     5      (1,33,35)            -7.14285714E-05
     6      (1,26,26)            -7.14285714E-05
     7      (1,41,26)            -7.14285714E-05
 -----------------------------------------------




 WEL PACKAGE (WEL2) FLOW RATES   PERIOD      1   STEP        8
 -----------------------------------------------
   NUMBER   CELLID                    RATE      
 -----------------------------------------------
     1      (1,17,26)             2.50000000E-04
     2      (1,33,26)             2.50000000E-04
 -----------------------------------------------




 HEAD WILL BE SAVED ON UNIT 1028 AT END OF TIME STEP    8, STRESS PERIOD    1


  VOLUME BUDGET FOR ENTIRE MODEL AT END OF TIME STEP    8, STRESS PERIOD   1
  ---------------------------------------------------------------------------------------------------

     CUMULATIVE VOLUME      L**3       RATES FOR THIS TIME STEP      L**3/T          PACKAGE NAME    
     ------------------                 ------------------------                     ----------------

           IN:                                      IN:
           ---                                      ---
              STO-SS =           0.0000                STO-SS =           0.0000     STORAGE                          
                 WEL =           0.0000                   WEL =           0.0000     WEL1                             
                 WEL =       8.0000E-03                   WEL =       5.0000E-04     WEL2                             

            TOTAL IN =       8.0000E-03              TOTAL IN =       5.0000E-04

          OUT:                                     OUT:
          ----                                     ----
              STO-SS =           0.0000                STO-SS =           0.0000     STORAGE                          
                 WEL =       8.0000E-03                   WEL =       5.0000E-04     WEL1                             
                 WEL =           0.0000                   WEL =           0.0000     WEL2                             

           TOTAL OUT =       8.0000E-03             TOTAL OUT =       5.0000E-04

            IN - OUT =       3.2000E-12              IN - OUT =       2.0000E-13

 PERCENT DISCREPANCY =           0.00     PERCENT DISCREPANCY =           0.00




         TIME SUMMARY AT END OF TIME STEP    8 IN STRESS PERIOD    1
                    SECONDS     MINUTES      HOURS       DAYS        YEARS
                    -----------------------------------------------------------
   TIME STEP LENGTH 1.72800E+05  2880.0      48.000      2.0000     5.47570E-03
 STRESS PERIOD TIME 1.38240E+06  23040.      384.00      16.000     4.38056E-02
         TOTAL TIME 1.38240E+06  23040.      384.00      16.000     4.38056E-02


end timestep


start timestep kper="1" kstp="9" mode="normal"

 UBDSV1 SAVING           STO-SS ON UNIT   1027 AT TIME STEP      9, STRESS PERIOD      1
 UBDSV1 SAVING     FLOW-JA-FACE ON UNIT   1027 AT TIME STEP      9, STRESS PERIOD      1

 WEL PACKAGE (WEL1) FLOW RATES   PERIOD      1   STEP        9
 -----------------------------------------------
   NUMBER   CELLID                    RATE      
 -----------------------------------------------
     1      (1,17,17)            -7.14285714E-05
     2      (1,33,17)            -7.14285714E-05
     3      (1,9,26)             -7.14285714E-05
     4      (1,17,35)            -7.14285714E-05
     5      (1,33,35)            -7.14285714E-05
     6      (1,26,26)            -7.14285714E-05
     7      (1,41,26)            -7.14285714E-05
 -----------------------------------------------




 WEL PACKAGE (WEL2) FLOW RATES   PERIOD      1   STEP        9
 -----------------------------------------------
   NUMBER   CELLID                    RATE      
 -----------------------------------------------
     1      (1,17,26)             2.50000000E-04
     2      (1,33,26)             2.50000000E-04
 -----------------------------------------------




 HEAD WILL BE SAVED ON UNIT 1028 AT END OF TIME STEP    9, STRESS PERIOD    1


  VOLUME BUDGET FOR ENTIRE MODEL AT END OF TIME STEP    9, STRESS PERIOD   1
  ---------------------------------------------------------------------------------------------------

     CUMULATIVE VOLUME      L**3       RATES FOR THIS TIME STEP      L**3/T          PACKAGE NAME    
     ------------------                 ------------------------                     ----------------

           IN:                                      IN:
           ---                                      ---
              STO-SS =           0.0000                STO-SS =           0.0000     STORAGE                          
                 WEL =           0.0000                   WEL =           0.0000     WEL1                             
                 WEL =       9.0000E-03                   WEL =       5.0000E-04     WEL2                             

            TOTAL IN =       9.0000E-03              TOTAL IN =       5.0000E-04

          OUT:                                     OUT:
          ----                                     ----
              STO-SS =           0.0000                STO-SS =           0.0000     STORAGE                          
                 WEL =       9.0000E-03                   WEL =       5.0000E-04     WEL1                             
                 WEL =           0.0000                   WEL =           0.0000     WEL2                             

           TOTAL OUT =       9.0000E-03             TOTAL OUT =       5.0000E-04

            IN - OUT =       3.6000E-12              IN - OUT =       2.0000E-13

 PERCENT DISCREPANCY =           0.00     PERCENT DISCREPANCY =           0.00




         TIME SUMMARY AT END OF TIME STEP    9 IN STRESS PERIOD    1
                    SECONDS     MINUTES      HOURS       DAYS        YEARS
                    -----------------------------------------------------------
   TIME STEP LENGTH 1.72800E+05  2880.0      48.000      2.0000     5.47570E-03
 STRESS PERIOD TIME 1.55520E+06  25920.      432.00      18.000     4.92813E-02
         TOTAL TIME 1.55520E+06  25920.      432.00      18.000     4.92813E-02


end timestep


start timestep kper="1" kstp="10" mode="normal"

 UBDSV1 SAVING           STO-SS ON UNIT   1027 AT TIME STEP     10, STRESS PERIOD      1
 UBDSV1 SAVING     FLOW-JA-FACE ON UNIT   1027 AT TIME STEP     10, STRESS PERIOD      1

 WEL PACKAGE (WEL1) FLOW RATES   PERIOD      1   STEP       10
 -----------------------------------------------
   NUMBER   CELLID                    RATE      
 -----------------------------------------------
     1      (1,17,17)            -7.14285714E-05
     2      (1,33,17)            -7.14285714E-05
     3      (1,9,26)             -7.14285714E-05
     4      (1,17,35)            -7.14285714E-05
     5      (1,33,35)            -7.14285714E-05
     6      (1,26,26)            -7.14285714E-05
     7      (1,41,26)            -7.14285714E-05
 -----------------------------------------------




 WEL PACKAGE (WEL2) FLOW RATES   PERIOD      1   STEP       10
 -----------------------------------------------
   NUMBER   CELLID                    RATE      
 -----------------------------------------------
     1      (1,17,26)             2.50000000E-04
     2      (1,33,26)             2.50000000E-04
 -----------------------------------------------




 HEAD WILL BE SAVED ON UNIT 1028 AT END OF TIME STEP   10, STRESS PERIOD    1


  VOLUME BUDGET FOR ENTIRE MODEL AT END OF TIME STEP   10, STRESS PERIOD   1
  ---------------------------------------------------------------------------------------------------

     CUMULATIVE VOLUME      L**3       RATES FOR THIS TIME STEP      L**3/T          PACKAGE NAME    
     ------------------                 ------------------------                     ----------------

           IN:                                      IN:
           ---                                      ---
              STO-SS =           0.0000                STO-SS =           0.0000     STORAGE                          
                 WEL =           0.0000                   WEL =           0.0000     WEL1                             
                 WEL =       1.0000E-02                   WEL =       5.0000E-04     WEL2                             

            TOTAL IN =       1.0000E-02              TOTAL IN =       5.0000E-04

          OUT:                                     OUT:
          ----                                     ----
              STO-SS =           0.0000                STO-SS =           0.0000     STORAGE                          
                 WEL =       1.0000E-02                   WEL =       5.0000E-04     WEL1                             
                 WEL =           0.0000                   WEL =           0.0000     WEL2                             

           TOTAL OUT =       1.0000E-02             TOTAL OUT =       5.0000E-04

            IN - OUT =       4.0000E-12              IN - OUT =       2.0000E-13

 PERCENT DISCREPANCY =           0.00     PERCENT DISCREPANCY =           0.00




         TIME SUMMARY AT END OF TIME STEP   10 IN STRESS PERIOD    1
                    SECONDS     MINUTES      HOURS       DAYS        YEARS
                    -----------------------------------------------------------
   TIME STEP LENGTH 1.72800E+05  2880.0      48.000      2.0000     5.47570E-03
 STRESS PERIOD TIME 1.72800E+06  28800.      480.00      20.000     5.47570E-02
         TOTAL TIME 1.72800E+06  28800.      480.00      20.000     5.47570E-02


end timestep


start timestep kper="1" kstp="11" mode="normal"

 UBDSV1 SAVING           STO-SS ON UNIT   1027 AT TIME STEP     11, STRESS PERIOD      1
 UBDSV1 SAVING     FLOW-JA-FACE ON UNIT   1027 AT TIME STEP     11, STRESS PERIOD      1

 WEL PACKAGE (WEL1) FLOW RATES   PERIOD      1   STEP       11
 -----------------------------------------------
   NUMBER   CELLID                    RATE      
 -----------------------------------------------
     1      (1,17,17)            -7.14285714E-05
     2      (1,33,17)            -7.14285714E-05
     3      (1,9,26)             -7.14285714E-05
     4      (1,17,35)            -7.14285714E-05
     5      (1,33,35)            -7.14285714E-05
     6      (1,26,26)            -7.14285714E-05
     7      (1,41,26)            -7.14285714E-05
 -----------------------------------------------




 WEL PACKAGE (WEL2) FLOW RATES   PERIOD      1   STEP       11
 -----------------------------------------------
   NUMBER   CELLID                    RATE      
 -----------------------------------------------
     1      (1,17,26)             2.50000000E-04
     2      (1,33,26)             2.50000000E-04
 -----------------------------------------------




 HEAD WILL BE SAVED ON UNIT 1028 AT END OF TIME STEP   11, STRESS PERIOD    1


  VOLUME BUDGET FOR ENTIRE MODEL AT END OF TIME STEP   11, STRESS PERIOD   1
  ---------------------------------------------------------------------------------------------------

     CUMULATIVE VOLUME      L**3       RATES FOR THIS TIME STEP      L**3/T          PACKAGE NAME    
     ------------------                 ------------------------                     ----------------

           IN:                                      IN:
           ---                                      ---
              STO-SS =           0.0000                STO-SS =           0.0000     STORAGE                          
                 WEL =           0.0000                   WEL =           0.0000     WEL1                             
                 WEL =       1.1000E-02                   WEL =       5.0000E-04     WEL2                             

            TOTAL IN =       1.1000E-02              TOTAL IN =       5.0000E-04

          OUT:                                     OUT:
          ----                                     ----
              STO-SS =           0.0000                STO-SS =           0.0000     STORAGE                          
                 WEL =       1.1000E-02                   WEL =       5.0000E-04     WEL1                             
                 WEL =           0.0000                   WEL =           0.0000     WEL2                             

           TOTAL OUT =       1.1000E-02             TOTAL OUT =       5.0000E-04

            IN - OUT =       4.4000E-12              IN - OUT =       2.0000E-13

 PERCENT DISCREPANCY =           0.00     PERCENT DISCREPANCY =           0.00




         TIME SUMMARY AT END OF TIME STEP   11 IN STRESS PERIOD    1
                    SECONDS     MINUTES      HOURS       DAYS        YEARS
                    -----------------------------------------------------------
   TIME STEP LENGTH 1.72800E+05  2880.0      48.000      2.0000     5.47570E-03
 STRESS PERIOD TIME 1.90080E+06  31680.      528.00      22.000     6.02327E-02
         TOTAL TIME 1.90080E+06  31680.      528.00      22.000     6.02327E-02


end timestep


start timestep kper="1" kstp="12" mode="normal"

 UBDSV1 SAVING           STO-SS ON UNIT   1027 AT TIME STEP     12, STRESS PERIOD      1
 UBDSV1 SAVING     FLOW-JA-FACE ON UNIT   1027 AT TIME STEP     12, STRESS PERIOD      1

 WEL PACKAGE (WEL1) FLOW RATES   PERIOD      1   STEP       12
 -----------------------------------------------
   NUMBER   CELLID                    RATE      
 -----------------------------------------------
     1      (1,17,17)            -7.14285714E-05
     2      (1,33,17)            -7.14285714E-05
     3      (1,9,26)             -7.14285714E-05
     4      (1,17,35)            -7.14285714E-05
     5      (1,33,35)            -7.14285714E-05
     6      (1,26,26)            -7.14285714E-05
     7      (1,41,26)            -7.14285714E-05
 -----------------------------------------------




 WEL PACKAGE (WEL2) FLOW RATES   PERIOD      1   STEP       12
 -----------------------------------------------
   NUMBER   CELLID                    RATE      
 -----------------------------------------------
     1      (1,17,26)             2.50000000E-04
     2      (1,33,26)             2.50000000E-04
 -----------------------------------------------




 HEAD WILL BE SAVED ON UNIT 1028 AT END OF TIME STEP   12, STRESS PERIOD    1


  VOLUME BUDGET FOR ENTIRE MODEL AT END OF TIME STEP   12, STRESS PERIOD   1
  ---------------------------------------------------------------------------------------------------

     CUMULATIVE VOLUME      L**3       RATES FOR THIS TIME STEP      L**3/T          PACKAGE NAME    
     ------------------                 ------------------------                     ----------------

           IN:                                      IN:
           ---                                      ---
              STO-SS =           0.0000                STO-SS =           0.0000     STORAGE                          
                 WEL =           0.0000                   WEL =           0.0000     WEL1                             
                 WEL =       1.2000E-02                   WEL =       5.0000E-04     WEL2                             

            TOTAL IN =       1.2000E-02              TOTAL IN =       5.0000E-04

          OUT:                                     OUT:
          ----                                     ----
              STO-SS =           0.0000                STO-SS =           0.0000     STORAGE                          
                 WEL =       1.2000E-02                   WEL =       5.0000E-04     WEL1                             
                 WEL =           0.0000                   WEL =           0.0000     WEL2                             

           TOTAL OUT =       1.2000E-02             TOTAL OUT =       5.0000E-04

            IN - OUT =       4.8000E-12              IN - OUT =       2.0000E-13

 PERCENT DISCREPANCY =           0.00     PERCENT DISCREPANCY =           0.00




         TIME SUMMARY AT END OF TIME STEP   12 IN STRESS PERIOD    1
                    SECONDS     MINUTES      HOURS       DAYS        YEARS
                    -----------------------------------------------------------
   TIME STEP LENGTH 1.72800E+05  2880.0      48.000      2.0000     5.47570E-03
 STRESS PERIOD TIME 2.07360E+06  34560.      576.00      24.000     6.57084E-02
         TOTAL TIME 2.07360E+06  34560.      576.00      24.000     6.57084E-02


end timestep


start timestep kper="1" kstp="13" mode="normal"

 UBDSV1 SAVING           STO-SS ON UNIT   1027 AT TIME STEP     13, STRESS PERIOD      1
 UBDSV1 SAVING     FLOW-JA-FACE ON UNIT   1027 AT TIME STEP     13, STRESS PERIOD      1

 WEL PACKAGE (WEL1) FLOW RATES   PERIOD      1   STEP       13
 -----------------------------------------------
   NUMBER   CELLID                    RATE      
 -----------------------------------------------
     1      (1,17,17)            -7.14285714E-05
     2      (1,33,17)            -7.14285714E-05
     3      (1,9,26)             -7.14285714E-05
     4      (1,17,35)            -7.14285714E-05
     5      (1,33,35)            -7.14285714E-05
     6      (1,26,26)            -7.14285714E-05
     7      (1,41,26)            -7.14285714E-05
 -----------------------------------------------




 WEL PACKAGE (WEL2) FLOW RATES   PERIOD      1   STEP       13
 -----------------------------------------------
   NUMBER   CELLID                    RATE      
 -----------------------------------------------
     1      (1,17,26)             2.50000000E-04
     2      (1,33,26)             2.50000000E-04
 -----------------------------------------------




 HEAD WILL BE SAVED ON UNIT 1028 AT END OF TIME STEP   13, STRESS PERIOD    1


  VOLUME BUDGET FOR ENTIRE MODEL AT END OF TIME STEP   13, STRESS PERIOD   1
  ---------------------------------------------------------------------------------------------------

     CUMULATIVE VOLUME      L**3       RATES FOR THIS TIME STEP      L**3/T          PACKAGE NAME    
     ------------------                 ------------------------                     ----------------

           IN:                                      IN:
           ---                                      ---
              STO-SS =           0.0000                STO-SS =           0.0000     STORAGE                          
                 WEL =           0.0000                   WEL =           0.0000     WEL1                             
                 WEL =       1.3000E-02                   WEL =       5.0000E-04     WEL2                             

            TOTAL IN =       1.3000E-02              TOTAL IN =       5.0000E-04

          OUT:                                     OUT:
          ----                                     ----
              STO-SS =           0.0000                STO-SS =           0.0000     STORAGE                          
                 WEL =       1.3000E-02                   WEL =       5.0000E-04     WEL1                             
                 WEL =           0.0000                   WEL =           0.0000     WEL2                             

           TOTAL OUT =       1.3000E-02             TOTAL OUT =       5.0000E-04

            IN - OUT =       5.2000E-12              IN - OUT =       2.0000E-13

 PERCENT DISCREPANCY =           0.00     PERCENT DISCREPANCY =           0.00




         TIME SUMMARY AT END OF TIME STEP   13 IN STRESS PERIOD    1
                    SECONDS     MINUTES      HOURS       DAYS        YEARS
                    -----------------------------------------------------------
   TIME STEP LENGTH 1.72800E+05  2880.0      48.000      2.0000     5.47570E-03
 STRESS PERIOD TIME 2.24640E+06  37440.      624.00      26.000     7.11841E-02
         TOTAL TIME 2.24640E+06  37440.      624.00      26.000     7.11841E-02


end timestep


start timestep kper="1" kstp="14" mode="normal"

 UBDSV1 SAVING           STO-SS ON UNIT   1027 AT TIME STEP     14, STRESS PERIOD      1
 UBDSV1 SAVING     FLOW-JA-FACE ON UNIT   1027 AT TIME STEP     14, STRESS PERIOD      1

 WEL PACKAGE (WEL1) FLOW RATES   PERIOD      1   STEP       14
 -----------------------------------------------
   NUMBER   CELLID                    RATE      
 -----------------------------------------------
     1      (1,17,17)            -7.14285714E-05
     2      (1,33,17)            -7.14285714E-05
     3      (1,9,26)             -7.14285714E-05
     4      (1,17,35)            -7.14285714E-05
     5      (1,33,35)            -7.14285714E-05
     6      (1,26,26)            -7.14285714E-05
     7      (1,41,26)            -7.14285714E-05
 -----------------------------------------------




 WEL PACKAGE (WEL2) FLOW RATES   PERIOD      1   STEP       14
 -----------------------------------------------
   NUMBER   CELLID                    RATE      
 -----------------------------------------------
     1      (1,17,26)             2.50000000E-04
     2      (1,33,26)             2.50000000E-04
 -----------------------------------------------




 HEAD WILL BE SAVED ON UNIT 1028 AT END OF TIME STEP   14, STRESS PERIOD    1


  VOLUME BUDGET FOR ENTIRE MODEL AT END OF TIME STEP   14, STRESS PERIOD   1
  ---------------------------------------------------------------------------------------------------

     CUMULATIVE VOLUME      L**3       RATES FOR THIS TIME STEP      L**3/T          PACKAGE NAME    
     ------------------                 ------------------------                     ----------------

           IN:                                      IN:
           ---                                      ---
              STO-SS =           0.0000                STO-SS =           0.0000     STORAGE                          
                 WEL =           0.0000                   WEL =           0.0000     WEL1                             
                 WEL =       1.4000E-02                   WEL =       5.0000E-04     WEL2                             

            TOTAL IN =       1.4000E-02              TOTAL IN =       5.0000E-04

          OUT:                                     OUT:
          ----                                     ----
              STO-SS =           0.0000                STO-SS =           0.0000     STORAGE                          
                 WEL =       1.4000E-02                   WEL =       5.0000E-04     WEL1                             
                 WEL =           0.0000                   WEL =           0.0000     WEL2                             

           TOTAL OUT =       1.4000E-02             TOTAL OUT =       5.0000E-04

            IN - OUT =       5.6000E-12              IN - OUT =       2.0000E-13

 PERCENT DISCREPANCY =           0.00     PERCENT DISCREPANCY =           0.00




         TIME SUMMARY AT END OF TIME STEP   14 IN STRESS PERIOD    1
                    SECONDS     MINUTES      HOURS       DAYS        YEARS
                    -----------------------------------------------------------
   TIME STEP LENGTH 1.72800E+05  2880.0      48.000      2.0000     5.47570E-03
 STRESS PERIOD TIME 2.41920E+06  40320.      672.00      28.000     7.66598E-02
         TOTAL TIME 2.41920E+06  40320.      672.00      28.000     7.66598E-02


end timestep


start timestep kper="1" kstp="15" mode="normal"

 UBDSV1 SAVING           STO-SS ON UNIT   1027 AT TIME STEP     15, STRESS PERIOD      1
 UBDSV1 SAVING     FLOW-JA-FACE ON UNIT   1027 AT TIME STEP     15, STRESS PERIOD      1

 WEL PACKAGE (WEL1) FLOW RATES   PERIOD      1   STEP       15
 -----------------------------------------------
   NUMBER   CELLID                    RATE      
 -----------------------------------------------
     1      (1,17,17)            -7.14285714E-05
     2      (1,33,17)            -7.14285714E-05
     3      (1,9,26)             -7.14285714E-05
     4      (1,17,35)            -7.14285714E-05
     5      (1,33,35)            -7.14285714E-05
     6      (1,26,26)            -7.14285714E-05
     7      (1,41,26)            -7.14285714E-05
 -----------------------------------------------




 WEL PACKAGE (WEL2) FLOW RATES   PERIOD      1   STEP       15
 -----------------------------------------------
   NUMBER   CELLID                    RATE      
 -----------------------------------------------
     1      (1,17,26)             2.50000000E-04
     2      (1,33,26)             2.50000000E-04
 -----------------------------------------------




 HEAD WILL BE SAVED ON UNIT 1028 AT END OF TIME STEP   15, STRESS PERIOD    1


  VOLUME BUDGET FOR ENTIRE MODEL AT END OF TIME STEP   15, STRESS PERIOD   1
  ---------------------------------------------------------------------------------------------------

     CUMULATIVE VOLUME      L**3       RATES FOR THIS TIME STEP      L**3/T          PACKAGE NAME    
     ------------------                 ------------------------                     ----------------

           IN:                                      IN:
           ---                                      ---
              STO-SS =           0.0000                STO-SS =           0.0000     STORAGE                          
                 WEL =           0.0000                   WEL =           0.0000     WEL1                             
                 WEL =       1.5000E-02                   WEL =       5.0000E-04     WEL2                             

            TOTAL IN =       1.5000E-02              TOTAL IN =       5.0000E-04

          OUT:                                     OUT:
          ----                                     ----
              STO-SS =           0.0000                STO-SS =           0.0000     STORAGE                          
                 WEL =       1.5000E-02                   WEL =       5.0000E-04     WEL1                             
                 WEL =           0.0000                   WEL =           0.0000     WEL2                             

           TOTAL OUT =       1.5000E-02             TOTAL OUT =       5.0000E-04

            IN - OUT =       6.0000E-12              IN - OUT =       2.0000E-13

 PERCENT DISCREPANCY =           0.00     PERCENT DISCREPANCY =           0.00




         TIME SUMMARY AT END OF TIME STEP   15 IN STRESS PERIOD    1
                    SECONDS     MINUTES      HOURS       DAYS        YEARS
                    -----------------------------------------------------------
   TIME STEP LENGTH 1.72800E+05  2880.0      48.000      2.0000     5.47570E-03
 STRESS PERIOD TIME 2.59200E+06  43200.      720.00      30.000     8.21355E-02
         TOTAL TIME 2.59200E+06  43200.      720.00      30.000     8.21355E-02


end timestep


start timestep kper="1" kstp="16" mode="normal"

 UBDSV1 SAVING           STO-SS ON UNIT   1027 AT TIME STEP     16, STRESS PERIOD      1
 UBDSV1 SAVING     FLOW-JA-FACE ON UNIT   1027 AT TIME STEP     16, STRESS PERIOD      1

 WEL PACKAGE (WEL1) FLOW RATES   PERIOD      1   STEP       16
 -----------------------------------------------
   NUMBER   CELLID                    RATE      
 -----------------------------------------------
     1      (1,17,17)            -7.14285714E-05
     2      (1,33,17)            -7.14285714E-05
     3      (1,9,26)             -7.14285714E-05
     4      (1,17,35)            -7.14285714E-05
     5      (1,33,35)            -7.14285714E-05
     6      (1,26,26)            -7.14285714E-05
     7      (1,41,26)            -7.14285714E-05
 -----------------------------------------------




 WEL PACKAGE (WEL2) FLOW RATES   PERIOD      1   STEP       16
 -----------------------------------------------
   NUMBER   CELLID                    RATE      
 -----------------------------------------------
     1      (1,17,26)             2.50000000E-04
     2      (1,33,26)             2.50000000E-04
 -----------------------------------------------




 HEAD WILL BE SAVED ON UNIT 1028 AT END OF TIME STEP   16, STRESS PERIOD    1


  VOLUME BUDGET FOR ENTIRE MODEL AT END OF TIME STEP   16, STRESS PERIOD   1
  ---------------------------------------------------------------------------------------------------

     CUMULATIVE VOLUME      L**3       RATES FOR THIS TIME STEP      L**3/T          PACKAGE NAME    
     ------------------                 ------------------------                     ----------------

           IN:                                      IN:
           ---                                      ---
              STO-SS =           0.0000                STO-SS =           0.0000     STORAGE                          
                 WEL =           0.0000                   WEL =           0.0000     WEL1                             
                 WEL =       1.6000E-02                   WEL =       5.0000E-04     WEL2                             

            TOTAL IN =       1.6000E-02              TOTAL IN =       5.0000E-04

          OUT:                                     OUT:
          ----                                     ----
              STO-SS =           0.0000                STO-SS =           0.0000     STORAGE                          
                 WEL =       1.6000E-02                   WEL =       5.0000E-04     WEL1                             
                 WEL =           0.0000                   WEL =           0.0000     WEL2                             

           TOTAL OUT =       1.6000E-02             TOTAL OUT =       5.0000E-04

            IN - OUT =       6.4000E-12              IN - OUT =       2.0000E-13

 PERCENT DISCREPANCY =           0.00     PERCENT DISCREPANCY =           0.00




         TIME SUMMARY AT END OF TIME STEP   16 IN STRESS PERIOD    1
                    SECONDS     MINUTES      HOURS       DAYS        YEARS
                    -----------------------------------------------------------
   TIME STEP LENGTH 1.72800E+05  2880.0      48.000      2.0000     5.47570E-03
 STRESS PERIOD TIME 2.76480E+06  46080.      768.00      32.000     8.76112E-02
         TOTAL TIME 2.76480E+06  46080.      768.00      32.000     8.76112E-02


end timestep


start timestep kper="1" kstp="17" mode="normal"

 UBDSV1 SAVING           STO-SS ON UNIT   1027 AT TIME STEP     17, STRESS PERIOD      1
 UBDSV1 SAVING     FLOW-JA-FACE ON UNIT   1027 AT TIME STEP     17, STRESS PERIOD      1

 WEL PACKAGE (WEL1) FLOW RATES   PERIOD      1   STEP       17
 -----------------------------------------------
   NUMBER   CELLID                    RATE      
 -----------------------------------------------
     1      (1,17,17)            -7.14285714E-05
     2      (1,33,17)            -7.14285714E-05
     3      (1,9,26)             -7.14285714E-05
     4      (1,17,35)            -7.14285714E-05
     5      (1,33,35)            -7.14285714E-05
     6      (1,26,26)            -7.14285714E-05
     7      (1,41,26)            -7.14285714E-05
 -----------------------------------------------




 WEL PACKAGE (WEL2) FLOW RATES   PERIOD      1   STEP       17
 -----------------------------------------------
   NUMBER   CELLID                    RATE      
 -----------------------------------------------
     1      (1,17,26)             2.50000000E-04
     2      (1,33,26)             2.50000000E-04
 -----------------------------------------------




 HEAD WILL BE SAVED ON UNIT 1028 AT END OF TIME STEP   17, STRESS PERIOD    1


  VOLUME BUDGET FOR ENTIRE MODEL AT END OF TIME STEP   17, STRESS PERIOD   1
  ---------------------------------------------------------------------------------------------------

     CUMULATIVE VOLUME      L**3       RATES FOR THIS TIME STEP      L**3/T          PACKAGE NAME    
     ------------------                 ------------------------                     ----------------

           IN:                                      IN:
           ---                                      ---
              STO-SS =           0.0000                STO-SS =           0.0000     STORAGE                          
                 WEL =           0.0000                   WEL =           0.0000     WEL1                             
                 WEL =       1.7000E-02                   WEL =       5.0000E-04     WEL2                             

            TOTAL IN =       1.7000E-02              TOTAL IN =       5.0000E-04

          OUT:                                     OUT:
          ----                                     ----
              STO-SS =           0.0000                STO-SS =           0.0000     STORAGE                          
                 WEL =       1.7000E-02                   WEL =       5.0000E-04     WEL1                             
                 WEL =           0.0000                   WEL =           0.0000     WEL2                             

           TOTAL OUT =       1.7000E-02             TOTAL OUT =       5.0000E-04

            IN - OUT =       6.8000E-12              IN - OUT =       2.0000E-13

 PERCENT DISCREPANCY =           0.00     PERCENT DISCREPANCY =           0.00




         TIME SUMMARY AT END OF TIME STEP   17 IN STRESS PERIOD    1
                    SECONDS     MINUTES      HOURS       DAYS        YEARS
                    -----------------------------------------------------------
   TIME STEP LENGTH 1.72800E+05  2880.0      48.000      2.0000     5.47570E-03
 STRESS PERIOD TIME 2.93760E+06  48960.      816.00      34.000     9.30869E-02
         TOTAL TIME 2.93760E+06  48960.      816.00      34.000     9.30869E-02


end timestep


start timestep kper="1" kstp="18" mode="normal"

 UBDSV1 SAVING           STO-SS ON UNIT   1027 AT TIME STEP     18, STRESS PERIOD      1
 UBDSV1 SAVING     FLOW-JA-FACE ON UNIT   1027 AT TIME STEP     18, STRESS PERIOD      1

 WEL PACKAGE (WEL1) FLOW RATES   PERIOD      1   STEP       18
 -----------------------------------------------
   NUMBER   CELLID                    RATE      
 -----------------------------------------------
     1      (1,17,17)            -7.14285714E-05
     2      (1,33,17)            -7.14285714E-05
     3      (1,9,26)             -7.14285714E-05
     4      (1,17,35)            -7.14285714E-05
     5      (1,33,35)            -7.14285714E-05
     6      (1,26,26)            -7.14285714E-05
     7      (1,41,26)            -7.14285714E-05
 -----------------------------------------------




 WEL PACKAGE (WEL2) FLOW RATES   PERIOD      1   STEP       18
 -----------------------------------------------
   NUMBER   CELLID                    RATE      
 -----------------------------------------------
     1      (1,17,26)             2.50000000E-04
     2      (1,33,26)             2.50000000E-04
 -----------------------------------------------




 HEAD WILL BE SAVED ON UNIT 1028 AT END OF TIME STEP   18, STRESS PERIOD    1


  VOLUME BUDGET FOR ENTIRE MODEL AT END OF TIME STEP   18, STRESS PERIOD   1
  ---------------------------------------------------------------------------------------------------

     CUMULATIVE VOLUME      L**3       RATES FOR THIS TIME STEP      L**3/T          PACKAGE NAME    
     ------------------                 ------------------------                     ----------------

           IN:                                      IN:
           ---                                      ---
              STO-SS =           0.0000                STO-SS =           0.0000     STORAGE                          
                 WEL =           0.0000                   WEL =           0.0000     WEL1                             
                 WEL =       1.8000E-02                   WEL =       5.0000E-04     WEL2                             

            TOTAL IN =       1.8000E-02              TOTAL IN =       5.0000E-04

          OUT:                                     OUT:
          ----                                     ----
              STO-SS =           0.0000                STO-SS =           0.0000     STORAGE                          
                 WEL =       1.8000E-02                   WEL =       5.0000E-04     WEL1                             
                 WEL =           0.0000                   WEL =           0.0000     WEL2                             

           TOTAL OUT =       1.8000E-02             TOTAL OUT =       5.0000E-04

            IN - OUT =       7.2000E-12              IN - OUT =       2.0000E-13

 PERCENT DISCREPANCY =           0.00     PERCENT DISCREPANCY =           0.00




         TIME SUMMARY AT END OF TIME STEP   18 IN STRESS PERIOD    1
                    SECONDS     MINUTES      HOURS       DAYS        YEARS
                    -----------------------------------------------------------
   TIME STEP LENGTH 1.72800E+05  2880.0      48.000      2.0000     5.47570E-03
 STRESS PERIOD TIME 3.11040E+06  51840.      864.00      36.000     9.85626E-02
         TOTAL TIME 3.11040E+06  51840.      864.00      36.000     9.85626E-02


end timestep


start timestep kper="1" kstp="19" mode="normal"

 UBDSV1 SAVING           STO-SS ON UNIT   1027 AT TIME STEP     19, STRESS PERIOD      1
 UBDSV1 SAVING     FLOW-JA-FACE ON UNIT   1027 AT TIME STEP     19, STRESS PERIOD      1

 WEL PACKAGE (WEL1) FLOW RATES   PERIOD      1   STEP       19
 -----------------------------------------------
   NUMBER   CELLID                    RATE      
 -----------------------------------------------
     1      (1,17,17)            -7.14285714E-05
     2      (1,33,17)            -7.14285714E-05
     3      (1,9,26)             -7.14285714E-05
     4      (1,17,35)            -7.14285714E-05
     5      (1,33,35)            -7.14285714E-05
     6      (1,26,26)            -7.14285714E-05
     7      (1,41,26)            -7.14285714E-05
 -----------------------------------------------




 WEL PACKAGE (WEL2) FLOW RATES   PERIOD      1   STEP       19
 -----------------------------------------------
   NUMBER   CELLID                    RATE      
 -----------------------------------------------
     1      (1,17,26)             2.50000000E-04
     2      (1,33,26)             2.50000000E-04
 -----------------------------------------------




 HEAD WILL BE SAVED ON UNIT 1028 AT END OF TIME STEP   19, STRESS PERIOD    1


  VOLUME BUDGET FOR ENTIRE MODEL AT END OF TIME STEP   19, STRESS PERIOD   1
  ---------------------------------------------------------------------------------------------------

     CUMULATIVE VOLUME      L**3       RATES FOR THIS TIME STEP      L**3/T          PACKAGE NAME    
     ------------------                 ------------------------                     ----------------

           IN:                                      IN:
           ---                                      ---
              STO-SS =           0.0000                STO-SS =           0.0000     STORAGE                          
                 WEL =           0.0000                   WEL =           0.0000     WEL1                             
                 WEL =       1.9000E-02                   WEL =       5.0000E-04     WEL2                             

            TOTAL IN =       1.9000E-02              TOTAL IN =       5.0000E-04

          OUT:                                     OUT:
          ----                                     ----
              STO-SS =           0.0000                STO-SS =           0.0000     STORAGE                          
                 WEL =       1.9000E-02                   WEL =       5.0000E-04     WEL1                             
                 WEL =           0.0000                   WEL =           0.0000     WEL2                             

           TOTAL OUT =       1.9000E-02             TOTAL OUT =       5.0000E-04

            IN - OUT =       7.6000E-12              IN - OUT =       2.0000E-13

 PERCENT DISCREPANCY =           0.00     PERCENT DISCREPANCY =           0.00




         TIME SUMMARY AT END OF TIME STEP   19 IN STRESS PERIOD    1
                    SECONDS     MINUTES      HOURS       DAYS        YEARS
                    -----------------------------------------------------------
   TIME STEP LENGTH 1.72800E+05  2880.0      48.000      2.0000     5.47570E-03
 STRESS PERIOD TIME 3.28320E+06  54720.      912.00      38.000     0.10404    
         TOTAL TIME 3.28320E+06  54720.      912.00      38.000     0.10404    


end timestep


start timestep kper="1" kstp="20" mode="normal"

 UBDSV1 SAVING           STO-SS ON UNIT   1027 AT TIME STEP     20, STRESS PERIOD      1
 UBDSV1 SAVING     FLOW-JA-FACE ON UNIT   1027 AT TIME STEP     20, STRESS PERIOD      1

 WEL PACKAGE (WEL1) FLOW RATES   PERIOD      1   STEP       20
 -----------------------------------------------
   NUMBER   CELLID                    RATE      
 -----------------------------------------------
     1      (1,17,17)            -7.14285714E-05
     2      (1,33,17)            -7.14285714E-05
     3      (1,9,26)             -7.14285714E-05
     4      (1,17,35)            -7.14285714E-05
     5      (1,33,35)            -7.14285714E-05
     6      (1,26,26)            -7.14285714E-05
     7      (1,41,26)            -7.14285714E-05
 -----------------------------------------------




 WEL PACKAGE (WEL2) FLOW RATES   PERIOD      1   STEP       20
 -----------------------------------------------
   NUMBER   CELLID                    RATE      
 -----------------------------------------------
     1      (1,17,26)             2.50000000E-04
     2      (1,33,26)             2.50000000E-04
 -----------------------------------------------




 HEAD WILL BE SAVED ON UNIT 1028 AT END OF TIME STEP   20, STRESS PERIOD    1


  VOLUME BUDGET FOR ENTIRE MODEL AT END OF TIME STEP   20, STRESS PERIOD   1
  ---------------------------------------------------------------------------------------------------

     CUMULATIVE VOLUME      L**3       RATES FOR THIS TIME STEP      L**3/T          PACKAGE NAME    
     ------------------                 ------------------------                     ----------------

           IN:                                      IN:
           ---                                      ---
              STO-SS =           0.0000                STO-SS =           0.0000     STORAGE                          
                 WEL =           0.0000                   WEL =           0.0000     WEL1                             
                 WEL =       2.0000E-02                   WEL =       5.0000E-04     WEL2                             

            TOTAL IN =       2.0000E-02              TOTAL IN =       5.0000E-04

          OUT:                                     OUT:
          ----                                     ----
              STO-SS =           0.0000                STO-SS =           0.0000     STORAGE                          
                 WEL =       2.0000E-02                   WEL =       5.0000E-04     WEL1                             
                 WEL =           0.0000                   WEL =           0.0000     WEL2                             

           TOTAL OUT =       2.0000E-02             TOTAL OUT =       5.0000E-04

            IN - OUT =       8.0000E-12              IN - OUT =       2.0000E-13

 PERCENT DISCREPANCY =           0.00     PERCENT DISCREPANCY =           0.00




         TIME SUMMARY AT END OF TIME STEP   20 IN STRESS PERIOD    1
                    SECONDS     MINUTES      HOURS       DAYS        YEARS
                    -----------------------------------------------------------
   TIME STEP LENGTH 1.72800E+05  2880.0      48.000      2.0000     5.47570E-03
 STRESS PERIOD TIME 3.45600E+06  57600.      960.00      40.000     0.10951    
         TOTAL TIME 3.45600E+06  57600.      960.00      40.000     0.10951    


end timestep


start timestep kper="1" kstp="21" mode="normal"

 UBDSV1 SAVING           STO-SS ON UNIT   1027 AT TIME STEP     21, STRESS PERIOD      1
 UBDSV1 SAVING     FLOW-JA-FACE ON UNIT   1027 AT TIME STEP     21, STRESS PERIOD      1

 WEL PACKAGE (WEL1) FLOW RATES   PERIOD      1   STEP       21
 -----------------------------------------------
   NUMBER   CELLID                    RATE      
 -----------------------------------------------
     1      (1,17,17)            -7.14285714E-05
     2      (1,33,17)            -7.14285714E-05
     3      (1,9,26)             -7.14285714E-05
     4      (1,17,35)            -7.14285714E-05
     5      (1,33,35)            -7.14285714E-05
     6      (1,26,26)            -7.14285714E-05
     7      (1,41,26)            -7.14285714E-05
 -----------------------------------------------




 WEL PACKAGE (WEL2) FLOW RATES   PERIOD      1   STEP       21
 -----------------------------------------------
   NUMBER   CELLID                    RATE      
 -----------------------------------------------
     1      (1,17,26)             2.50000000E-04
     2      (1,33,26)             2.50000000E-04
 -----------------------------------------------




 HEAD WILL BE SAVED ON UNIT 1028 AT END OF TIME STEP   21, STRESS PERIOD    1


  VOLUME BUDGET FOR ENTIRE MODEL AT END OF TIME STEP   21, STRESS PERIOD   1
  ---------------------------------------------------------------------------------------------------

     CUMULATIVE VOLUME      L**3       RATES FOR THIS TIME STEP      L**3/T          PACKAGE NAME    
     ------------------                 ------------------------                     ----------------

           IN:                                      IN:
           ---                                      ---
              STO-SS =           0.0000                STO-SS =           0.0000     STORAGE                          
                 WEL =           0.0000                   WEL =           0.0000     WEL1                             
                 WEL =       2.1000E-02                   WEL =       5.0000E-04     WEL2                             

            TOTAL IN =       2.1000E-02              TOTAL IN =       5.0000E-04

          OUT:                                     OUT:
          ----                                     ----
              STO-SS =           0.0000                STO-SS =           0.0000     STORAGE                          
                 WEL =       2.1000E-02                   WEL =       5.0000E-04     WEL1                             
                 WEL =           0.0000                   WEL =           0.0000     WEL2                             

           TOTAL OUT =       2.1000E-02             TOTAL OUT =       5.0000E-04

            IN - OUT =       8.4000E-12              IN - OUT =       2.0000E-13

 PERCENT DISCREPANCY =           0.00     PERCENT DISCREPANCY =           0.00




         TIME SUMMARY AT END OF TIME STEP   21 IN STRESS PERIOD    1
                    SECONDS     MINUTES      HOURS       DAYS        YEARS
                    -----------------------------------------------------------
   TIME STEP LENGTH 1.72800E+05  2880.0      48.000      2.0000     5.47570E-03
 STRESS PERIOD TIME 3.62880E+06  60480.      1008.0      42.000     0.11499    
         TOTAL TIME 3.62880E+06  60480.      1008.0      42.000     0.11499    


end timestep


start timestep kper="1" kstp="22" mode="normal"

 UBDSV1 SAVING           STO-SS ON UNIT   1027 AT TIME STEP     22, STRESS PERIOD      1
 UBDSV1 SAVING     FLOW-JA-FACE ON UNIT   1027 AT TIME STEP     22, STRESS PERIOD      1

 WEL PACKAGE (WEL1) FLOW RATES   PERIOD      1   STEP       22
 -----------------------------------------------
   NUMBER   CELLID                    RATE      
 -----------------------------------------------
     1      (1,17,17)            -7.14285714E-05
     2      (1,33,17)            -7.14285714E-05
     3      (1,9,26)             -7.14285714E-05
     4      (1,17,35)            -7.14285714E-05
     5      (1,33,35)            -7.14285714E-05
     6      (1,26,26)            -7.14285714E-05
     7      (1,41,26)            -7.14285714E-05
 -----------------------------------------------




 WEL PACKAGE (WEL2) FLOW RATES   PERIOD      1   STEP       22
 -----------------------------------------------
   NUMBER   CELLID                    RATE      
 -----------------------------------------------
     1      (1,17,26)             2.50000000E-04
     2      (1,33,26)             2.50000000E-04
 -----------------------------------------------




 HEAD WILL BE SAVED ON UNIT 1028 AT END OF TIME STEP   22, STRESS PERIOD    1


  VOLUME BUDGET FOR ENTIRE MODEL AT END OF TIME STEP   22, STRESS PERIOD   1
  ---------------------------------------------------------------------------------------------------

     CUMULATIVE VOLUME      L**3       RATES FOR THIS TIME STEP      L**3/T          PACKAGE NAME    
     ------------------                 ------------------------                     ----------------

           IN:                                      IN:
           ---                                      ---
              STO-SS =           0.0000                STO-SS =           0.0000     STORAGE                          
                 WEL =           0.0000                   WEL =           0.0000     WEL1                             
                 WEL =       2.2000E-02                   WEL =       5.0000E-04     WEL2                             

            TOTAL IN =       2.2000E-02              TOTAL IN =       5.0000E-04

          OUT:                                     OUT:
          ----                                     ----
              STO-SS =           0.0000                STO-SS =           0.0000     STORAGE                          
                 WEL =       2.2000E-02                   WEL =       5.0000E-04     WEL1                             
                 WEL =           0.0000                   WEL =           0.0000     WEL2                             

           TOTAL OUT =       2.2000E-02             TOTAL OUT =       5.0000E-04

            IN - OUT =       8.8000E-12              IN - OUT =       2.0000E-13

 PERCENT DISCREPANCY =           0.00     PERCENT DISCREPANCY =           0.00




         TIME SUMMARY AT END OF TIME STEP   22 IN STRESS PERIOD    1
                    SECONDS     MINUTES      HOURS       DAYS        YEARS
                    -----------------------------------------------------------
   TIME STEP LENGTH 1.72800E+05  2880.0      48.000      2.0000     5.47570E-03
 STRESS PERIOD TIME 3.80160E+06  63360.      1056.0      44.000     0.12047    
         TOTAL TIME 3.80160E+06  63360.      1056.0      44.000     0.12047    


end timestep


start timestep kper="1" kstp="23" mode="normal"

 UBDSV1 SAVING           STO-SS ON UNIT   1027 AT TIME STEP     23, STRESS PERIOD      1
 UBDSV1 SAVING     FLOW-JA-FACE ON UNIT   1027 AT TIME STEP     23, STRESS PERIOD      1

 WEL PACKAGE (WEL1) FLOW RATES   PERIOD      1   STEP       23
 -----------------------------------------------
   NUMBER   CELLID                    RATE      
 -----------------------------------------------
     1      (1,17,17)            -7.14285714E-05
     2      (1,33,17)            -7.14285714E-05
     3      (1,9,26)             -7.14285714E-05
     4      (1,17,35)            -7.14285714E-05
     5      (1,33,35)            -7.14285714E-05
     6      (1,26,26)            -7.14285714E-05
     7      (1,41,26)            -7.14285714E-05
 -----------------------------------------------




 WEL PACKAGE (WEL2) FLOW RATES   PERIOD      1   STEP       23
 -----------------------------------------------
   NUMBER   CELLID                    RATE      
 -----------------------------------------------
     1      (1,17,26)             2.50000000E-04
     2      (1,33,26)             2.50000000E-04
 -----------------------------------------------




 HEAD WILL BE SAVED ON UNIT 1028 AT END OF TIME STEP   23, STRESS PERIOD    1


  VOLUME BUDGET FOR ENTIRE MODEL AT END OF TIME STEP   23, STRESS PERIOD   1
  ---------------------------------------------------------------------------------------------------

     CUMULATIVE VOLUME      L**3       RATES FOR THIS TIME STEP      L**3/T          PACKAGE NAME    
     ------------------                 ------------------------                     ----------------

           IN:                                      IN:
           ---                                      ---
              STO-SS =           0.0000                STO-SS =           0.0000     STORAGE                          
                 WEL =           0.0000                   WEL =           0.0000     WEL1                             
                 WEL =       2.3000E-02                   WEL =       5.0000E-04     WEL2                             

            TOTAL IN =       2.3000E-02              TOTAL IN =       5.0000E-04

          OUT:                                     OUT:
          ----                                     ----
              STO-SS =           0.0000                STO-SS =           0.0000     STORAGE                          
                 WEL =       2.3000E-02                   WEL =       5.0000E-04     WEL1                             
                 WEL =           0.0000                   WEL =           0.0000     WEL2                             

           TOTAL OUT =       2.3000E-02             TOTAL OUT =       5.0000E-04

            IN - OUT =       9.2000E-12              IN - OUT =       2.0000E-13

 PERCENT DISCREPANCY =           0.00     PERCENT DISCREPANCY =           0.00




         TIME SUMMARY AT END OF TIME STEP   23 IN STRESS PERIOD    1
                    SECONDS     MINUTES      HOURS       DAYS        YEARS
                    -----------------------------------------------------------
   TIME STEP LENGTH 1.72800E+05  2880.0      48.000      2.0000     5.47570E-03
 STRESS PERIOD TIME 3.97440E+06  66240.      1104.0      46.000     0.12594    
         TOTAL TIME 3.97440E+06  66240.      1104.0      46.000     0.12594    


end timestep


start timestep kper="1" kstp="24" mode="normal"

 UBDSV1 SAVING           STO-SS ON UNIT   1027 AT TIME STEP     24, STRESS PERIOD      1
 UBDSV1 SAVING     FLOW-JA-FACE ON UNIT   1027 AT TIME STEP     24, STRESS PERIOD      1

 WEL PACKAGE (WEL1) FLOW RATES   PERIOD      1   STEP       24
 -----------------------------------------------
   NUMBER   CELLID                    RATE      
 -----------------------------------------------
     1      (1,17,17)            -7.14285714E-05
     2      (1,33,17)            -7.14285714E-05
     3      (1,9,26)             -7.14285714E-05
     4      (1,17,35)            -7.14285714E-05
     5      (1,33,35)            -7.14285714E-05
     6      (1,26,26)            -7.14285714E-05
     7      (1,41,26)            -7.14285714E-05
 -----------------------------------------------




 WEL PACKAGE (WEL2) FLOW RATES   PERIOD      1   STEP       24
 -----------------------------------------------
   NUMBER   CELLID                    RATE      
 -----------------------------------------------
     1      (1,17,26)             2.50000000E-04
     2      (1,33,26)             2.50000000E-04
 -----------------------------------------------




 HEAD WILL BE SAVED ON UNIT 1028 AT END OF TIME STEP   24, STRESS PERIOD    1


  VOLUME BUDGET FOR ENTIRE MODEL AT END OF TIME STEP   24, STRESS PERIOD   1
  ---------------------------------------------------------------------------------------------------

     CUMULATIVE VOLUME      L**3       RATES FOR THIS TIME STEP      L**3/T          PACKAGE NAME    
     ------------------                 ------------------------                     ----------------

           IN:                                      IN:
           ---                                      ---
              STO-SS =           0.0000                STO-SS =           0.0000     STORAGE                          
                 WEL =           0.0000                   WEL =           0.0000     WEL1                             
                 WEL =       2.4000E-02                   WEL =       5.0000E-04     WEL2                             

            TOTAL IN =       2.4000E-02              TOTAL IN =       5.0000E-04

          OUT:                                     OUT:
          ----                                     ----
              STO-SS =           0.0000                STO-SS =           0.0000     STORAGE                          
                 WEL =       2.4000E-02                   WEL =       5.0000E-04     WEL1                             
                 WEL =           0.0000                   WEL =           0.0000     WEL2                             

           TOTAL OUT =       2.4000E-02             TOTAL OUT =       5.0000E-04

            IN - OUT =       9.6000E-12              IN - OUT =       2.0000E-13

 PERCENT DISCREPANCY =           0.00     PERCENT DISCREPANCY =           0.00




         TIME SUMMARY AT END OF TIME STEP   24 IN STRESS PERIOD    1
                    SECONDS     MINUTES      HOURS       DAYS        YEARS
                    -----------------------------------------------------------
   TIME STEP LENGTH 1.72800E+05  2880.0      48.000      2.0000     5.47570E-03
 STRESS PERIOD TIME 4.14720E+06  69120.      1152.0      48.000     0.13142    
         TOTAL TIME 4.14720E+06  69120.      1152.0      48.000     0.13142    


end timestep


start timestep kper="1" kstp="25" mode="normal"

 UBDSV1 SAVING           STO-SS ON UNIT   1027 AT TIME STEP     25, STRESS PERIOD      1
 UBDSV1 SAVING     FLOW-JA-FACE ON UNIT   1027 AT TIME STEP     25, STRESS PERIOD      1

 WEL PACKAGE (WEL1) FLOW RATES   PERIOD      1   STEP       25
 -----------------------------------------------
   NUMBER   CELLID                    RATE      
 -----------------------------------------------
     1      (1,17,17)            -7.14285714E-05
     2      (1,33,17)            -7.14285714E-05
     3      (1,9,26)             -7.14285714E-05
     4      (1,17,35)            -7.14285714E-05
     5      (1,33,35)            -7.14285714E-05
     6      (1,26,26)            -7.14285714E-05
     7      (1,41,26)            -7.14285714E-05
 -----------------------------------------------




 WEL PACKAGE (WEL2) FLOW RATES   PERIOD      1   STEP       25
 -----------------------------------------------
   NUMBER   CELLID                    RATE      
 -----------------------------------------------
     1      (1,17,26)             2.50000000E-04
     2      (1,33,26)             2.50000000E-04
 -----------------------------------------------




 HEAD WILL BE SAVED ON UNIT 1028 AT END OF TIME STEP   25, STRESS PERIOD    1


  VOLUME BUDGET FOR ENTIRE MODEL AT END OF TIME STEP   25, STRESS PERIOD   1
  ---------------------------------------------------------------------------------------------------

     CUMULATIVE VOLUME      L**3       RATES FOR THIS TIME STEP      L**3/T          PACKAGE NAME    
     ------------------                 ------------------------                     ----------------

           IN:                                      IN:
           ---                                      ---
              STO-SS =           0.0000                STO-SS =           0.0000     STORAGE                          
                 WEL =           0.0000                   WEL =           0.0000     WEL1                             
                 WEL =       2.5000E-02                   WEL =       5.0000E-04     WEL2                             

            TOTAL IN =       2.5000E-02              TOTAL IN =       5.0000E-04

          OUT:                                     OUT:
          ----                                     ----
              STO-SS =           0.0000                STO-SS =           0.0000     STORAGE                          
                 WEL =       2.5000E-02                   WEL =       5.0000E-04     WEL1                             
                 WEL =           0.0000                   WEL =           0.0000     WEL2                             

           TOTAL OUT =       2.5000E-02             TOTAL OUT =       5.0000E-04

            IN - OUT =       1.0000E-11              IN - OUT =       2.0000E-13

 PERCENT DISCREPANCY =           0.00     PERCENT DISCREPANCY =           0.00




         TIME SUMMARY AT END OF TIME STEP   25 IN STRESS PERIOD    1
                    SECONDS     MINUTES      HOURS       DAYS        YEARS
                    -----------------------------------------------------------
   TIME STEP LENGTH 1.72800E+05  2880.0      48.000      2.0000     5.47570E-03
 STRESS PERIOD TIME 4.32000E+06  72000.      1200.0      50.000     0.13689    
         TOTAL TIME 4.32000E+06  72000.      1200.0      50.000     0.13689    


end timestep


start timestep kper="1" kstp="26" mode="normal"

 UBDSV1 SAVING           STO-SS ON UNIT   1027 AT TIME STEP     26, STRESS PERIOD      1
 UBDSV1 SAVING     FLOW-JA-FACE ON UNIT   1027 AT TIME STEP     26, STRESS PERIOD      1

 WEL PACKAGE (WEL1) FLOW RATES   PERIOD      1   STEP       26
 -----------------------------------------------
   NUMBER   CELLID                    RATE      
 -----------------------------------------------
     1      (1,17,17)            -7.14285714E-05
     2      (1,33,17)            -7.14285714E-05
     3      (1,9,26)             -7.14285714E-05
     4      (1,17,35)            -7.14285714E-05
     5      (1,33,35)            -7.14285714E-05
     6      (1,26,26)            -7.14285714E-05
     7      (1,41,26)            -7.14285714E-05
 -----------------------------------------------




 WEL PACKAGE (WEL2) FLOW RATES   PERIOD      1   STEP       26
 -----------------------------------------------
   NUMBER   CELLID                    RATE      
 -----------------------------------------------
     1      (1,17,26)             2.50000000E-04
     2      (1,33,26)             2.50000000E-04
 -----------------------------------------------




 HEAD WILL BE SAVED ON UNIT 1028 AT END OF TIME STEP   26, STRESS PERIOD    1


  VOLUME BUDGET FOR ENTIRE MODEL AT END OF TIME STEP   26, STRESS PERIOD   1
  ---------------------------------------------------------------------------------------------------

     CUMULATIVE VOLUME      L**3       RATES FOR THIS TIME STEP      L**3/T          PACKAGE NAME    
     ------------------                 ------------------------                     ----------------

           IN:                                      IN:
           ---                                      ---
              STO-SS =           0.0000                STO-SS =           0.0000     STORAGE                          
                 WEL =           0.0000                   WEL =           0.0000     WEL1                             
                 WEL =       2.6000E-02                   WEL =       5.0000E-04     WEL2                             

            TOTAL IN =       2.6000E-02              TOTAL IN =       5.0000E-04

          OUT:                                     OUT:
          ----                                     ----
              STO-SS =           0.0000                STO-SS =           0.0000     STORAGE                          
                 WEL =       2.6000E-02                   WEL =       5.0000E-04     WEL1                             
                 WEL =           0.0000                   WEL =           0.0000     WEL2                             

           TOTAL OUT =       2.6000E-02             TOTAL OUT =       5.0000E-04

            IN - OUT =       1.0400E-11              IN - OUT =       2.0000E-13

 PERCENT DISCREPANCY =           0.00     PERCENT DISCREPANCY =           0.00




         TIME SUMMARY AT END OF TIME STEP   26 IN STRESS PERIOD    1
                    SECONDS     MINUTES      HOURS       DAYS        YEARS
                    -----------------------------------------------------------
   TIME STEP LENGTH 1.72800E+05  2880.0      48.000      2.0000     5.47570E-03
 STRESS PERIOD TIME 4.49280E+06  74880.      1248.0      52.000     0.14237    
         TOTAL TIME 4.49280E+06  74880.      1248.0      52.000     0.14237    


end timestep


start timestep kper="1" kstp="27" mode="normal"

 UBDSV1 SAVING           STO-SS ON UNIT   1027 AT TIME STEP     27, STRESS PERIOD      1
 UBDSV1 SAVING     FLOW-JA-FACE ON UNIT   1027 AT TIME STEP     27, STRESS PERIOD      1

 WEL PACKAGE (WEL1) FLOW RATES   PERIOD      1   STEP       27
 -----------------------------------------------
   NUMBER   CELLID                    RATE      
 -----------------------------------------------
     1      (1,17,17)            -7.14285714E-05
     2      (1,33,17)            -7.14285714E-05
     3      (1,9,26)             -7.14285714E-05
     4      (1,17,35)            -7.14285714E-05
     5      (1,33,35)            -7.14285714E-05
     6      (1,26,26)            -7.14285714E-05
     7      (1,41,26)            -7.14285714E-05
 -----------------------------------------------




 WEL PACKAGE (WEL2) FLOW RATES   PERIOD      1   STEP       27
 -----------------------------------------------
   NUMBER   CELLID                    RATE      
 -----------------------------------------------
     1      (1,17,26)             2.50000000E-04
     2      (1,33,26)             2.50000000E-04
 -----------------------------------------------




 HEAD WILL BE SAVED ON UNIT 1028 AT END OF TIME STEP   27, STRESS PERIOD    1


  VOLUME BUDGET FOR ENTIRE MODEL AT END OF TIME STEP   27, STRESS PERIOD   1
  ---------------------------------------------------------------------------------------------------

     CUMULATIVE VOLUME      L**3       RATES FOR THIS TIME STEP      L**3/T          PACKAGE NAME    
     ------------------                 ------------------------                     ----------------

           IN:                                      IN:
           ---                                      ---
              STO-SS =           0.0000                STO-SS =           0.0000     STORAGE                          
                 WEL =           0.0000                   WEL =           0.0000     WEL1                             
                 WEL =       2.7000E-02                   WEL =       5.0000E-04     WEL2                             

            TOTAL IN =       2.7000E-02              TOTAL IN =       5.0000E-04

          OUT:                                     OUT:
          ----                                     ----
              STO-SS =           0.0000                STO-SS =           0.0000     STORAGE                          
                 WEL =       2.7000E-02                   WEL =       5.0000E-04     WEL1                             
                 WEL =           0.0000                   WEL =           0.0000     WEL2                             

           TOTAL OUT =       2.7000E-02             TOTAL OUT =       5.0000E-04

            IN - OUT =       1.0800E-11              IN - OUT =       2.0000E-13

 PERCENT DISCREPANCY =           0.00     PERCENT DISCREPANCY =           0.00




         TIME SUMMARY AT END OF TIME STEP   27 IN STRESS PERIOD    1
                    SECONDS     MINUTES      HOURS       DAYS        YEARS
                    -----------------------------------------------------------
   TIME STEP LENGTH 1.72800E+05  2880.0      48.000      2.0000     5.47570E-03
 STRESS PERIOD TIME 4.66560E+06  77760.      1296.0      54.000     0.14784    
         TOTAL TIME 4.66560E+06  77760.      1296.0      54.000     0.14784    


end timestep


start timestep kper="1" kstp="28" mode="normal"

 UBDSV1 SAVING           STO-SS ON UNIT   1027 AT TIME STEP     28, STRESS PERIOD      1
 UBDSV1 SAVING     FLOW-JA-FACE ON UNIT   1027 AT TIME STEP     28, STRESS PERIOD      1

 WEL PACKAGE (WEL1) FLOW RATES   PERIOD      1   STEP       28
 -----------------------------------------------
   NUMBER   CELLID                    RATE      
 -----------------------------------------------
     1      (1,17,17)            -7.14285714E-05
     2      (1,33,17)            -7.14285714E-05
     3      (1,9,26)             -7.14285714E-05
     4      (1,17,35)            -7.14285714E-05
     5      (1,33,35)            -7.14285714E-05
     6      (1,26,26)            -7.14285714E-05
     7      (1,41,26)            -7.14285714E-05
 -----------------------------------------------




 WEL PACKAGE (WEL2) FLOW RATES   PERIOD      1   STEP       28
 -----------------------------------------------
   NUMBER   CELLID                    RATE      
 -----------------------------------------------
     1      (1,17,26)             2.50000000E-04
     2      (1,33,26)             2.50000000E-04
 -----------------------------------------------




 HEAD WILL BE SAVED ON UNIT 1028 AT END OF TIME STEP   28, STRESS PERIOD    1


  VOLUME BUDGET FOR ENTIRE MODEL AT END OF TIME STEP   28, STRESS PERIOD   1
  ---------------------------------------------------------------------------------------------------

     CUMULATIVE VOLUME      L**3       RATES FOR THIS TIME STEP      L**3/T          PACKAGE NAME    
     ------------------                 ------------------------                     ----------------

           IN:                                      IN:
           ---                                      ---
              STO-SS =           0.0000                STO-SS =           0.0000     STORAGE                          
                 WEL =           0.0000                   WEL =           0.0000     WEL1                             
                 WEL =       2.8000E-02                   WEL =       5.0000E-04     WEL2                             

            TOTAL IN =       2.8000E-02              TOTAL IN =       5.0000E-04

          OUT:                                     OUT:
          ----                                     ----
              STO-SS =           0.0000                STO-SS =           0.0000     STORAGE                          
                 WEL =       2.8000E-02                   WEL =       5.0000E-04     WEL1                             
                 WEL =           0.0000                   WEL =           0.0000     WEL2                             

           TOTAL OUT =       2.8000E-02             TOTAL OUT =       5.0000E-04

            IN - OUT =       1.1200E-11              IN - OUT =       2.0000E-13

 PERCENT DISCREPANCY =           0.00     PERCENT DISCREPANCY =           0.00




         TIME SUMMARY AT END OF TIME STEP   28 IN STRESS PERIOD    1
                    SECONDS     MINUTES      HOURS       DAYS        YEARS
                    -----------------------------------------------------------
   TIME STEP LENGTH 1.72800E+05  2880.0      48.000      2.0000     5.47570E-03
 STRESS PERIOD TIME 4.83840E+06  80640.      1344.0      56.000     0.15332    
         TOTAL TIME 4.83840E+06  80640.      1344.0      56.000     0.15332    


end timestep


start timestep kper="1" kstp="29" mode="normal"

 UBDSV1 SAVING           STO-SS ON UNIT   1027 AT TIME STEP     29, STRESS PERIOD      1
 UBDSV1 SAVING     FLOW-JA-FACE ON UNIT   1027 AT TIME STEP     29, STRESS PERIOD      1

 WEL PACKAGE (WEL1) FLOW RATES   PERIOD      1   STEP       29
 -----------------------------------------------
   NUMBER   CELLID                    RATE      
 -----------------------------------------------
     1      (1,17,17)            -7.14285714E-05
     2      (1,33,17)            -7.14285714E-05
     3      (1,9,26)             -7.14285714E-05
     4      (1,17,35)            -7.14285714E-05
     5      (1,33,35)            -7.14285714E-05
     6      (1,26,26)            -7.14285714E-05
     7      (1,41,26)            -7.14285714E-05
 -----------------------------------------------




 WEL PACKAGE (WEL2) FLOW RATES   PERIOD      1   STEP       29
 -----------------------------------------------
   NUMBER   CELLID                    RATE      
 -----------------------------------------------
     1      (1,17,26)             2.50000000E-04
     2      (1,33,26)             2.50000000E-04
 -----------------------------------------------




 HEAD WILL BE SAVED ON UNIT 1028 AT END OF TIME STEP   29, STRESS PERIOD    1


  VOLUME BUDGET FOR ENTIRE MODEL AT END OF TIME STEP   29, STRESS PERIOD   1
  ---------------------------------------------------------------------------------------------------

     CUMULATIVE VOLUME      L**3       RATES FOR THIS TIME STEP      L**3/T          PACKAGE NAME    
     ------------------                 ------------------------                     ----------------

           IN:                                      IN:
           ---                                      ---
              STO-SS =           0.0000                STO-SS =           0.0000     STORAGE                          
                 WEL =           0.0000                   WEL =           0.0000     WEL1                             
                 WEL =       2.9000E-02                   WEL =       5.0000E-04     WEL2                             

            TOTAL IN =       2.9000E-02              TOTAL IN =       5.0000E-04

          OUT:                                     OUT:
          ----                                     ----
              STO-SS =           0.0000                STO-SS =           0.0000     STORAGE                          
                 WEL =       2.9000E-02                   WEL =       5.0000E-04     WEL1                             
                 WEL =           0.0000                   WEL =           0.0000     WEL2                             

           TOTAL OUT =       2.9000E-02             TOTAL OUT =       5.0000E-04

            IN - OUT =       1.1600E-11              IN - OUT =       2.0000E-13

 PERCENT DISCREPANCY =           0.00     PERCENT DISCREPANCY =           0.00




         TIME SUMMARY AT END OF TIME STEP   29 IN STRESS PERIOD    1
                    SECONDS     MINUTES      HOURS       DAYS        YEARS
                    -----------------------------------------------------------
   TIME STEP LENGTH 1.72800E+05  2880.0      48.000      2.0000     5.47570E-03
 STRESS PERIOD TIME 5.01120E+06  83520.      1392.0      58.000     0.15880    
         TOTAL TIME 5.01120E+06  83520.      1392.0      58.000     0.15880    


end timestep


start timestep kper="1" kstp="30" mode="normal"

 UBDSV1 SAVING           STO-SS ON UNIT   1027 AT TIME STEP     30, STRESS PERIOD      1
 UBDSV1 SAVING     FLOW-JA-FACE ON UNIT   1027 AT TIME STEP     30, STRESS PERIOD      1

 WEL PACKAGE (WEL1) FLOW RATES   PERIOD      1   STEP       30
 -----------------------------------------------
   NUMBER   CELLID                    RATE      
 -----------------------------------------------
     1      (1,17,17)            -7.14285714E-05
     2      (1,33,17)            -7.14285714E-05
     3      (1,9,26)             -7.14285714E-05
     4      (1,17,35)            -7.14285714E-05
     5      (1,33,35)            -7.14285714E-05
     6      (1,26,26)            -7.14285714E-05
     7      (1,41,26)            -7.14285714E-05
 -----------------------------------------------




 WEL PACKAGE (WEL2) FLOW RATES   PERIOD      1   STEP       30
 -----------------------------------------------
   NUMBER   CELLID                    RATE      
 -----------------------------------------------
     1      (1,17,26)             2.50000000E-04
     2      (1,33,26)             2.50000000E-04
 -----------------------------------------------




 HEAD WILL BE SAVED ON UNIT 1028 AT END OF TIME STEP   30, STRESS PERIOD    1


  VOLUME BUDGET FOR ENTIRE MODEL AT END OF TIME STEP   30, STRESS PERIOD   1
  ---------------------------------------------------------------------------------------------------

     CUMULATIVE VOLUME      L**3       RATES FOR THIS TIME STEP      L**3/T          PACKAGE NAME    
     ------------------                 ------------------------                     ----------------

           IN:                                      IN:
           ---                                      ---
              STO-SS =           0.0000                STO-SS =           0.0000     STORAGE                          
                 WEL =           0.0000                   WEL =           0.0000     WEL1                             
                 WEL =       3.0000E-02                   WEL =       5.0000E-04     WEL2                             

            TOTAL IN =       3.0000E-02              TOTAL IN =       5.0000E-04

          OUT:                                     OUT:
          ----                                     ----
              STO-SS =           0.0000                STO-SS =           0.0000     STORAGE                          
                 WEL =       3.0000E-02                   WEL =       5.0000E-04     WEL1                             
                 WEL =           0.0000                   WEL =           0.0000     WEL2                             

           TOTAL OUT =       3.0000E-02             TOTAL OUT =       5.0000E-04

            IN - OUT =       1.2000E-11              IN - OUT =       2.0000E-13

 PERCENT DISCREPANCY =           0.00     PERCENT DISCREPANCY =           0.00




         TIME SUMMARY AT END OF TIME STEP   30 IN STRESS PERIOD    1
                    SECONDS     MINUTES      HOURS       DAYS        YEARS
                    -----------------------------------------------------------
   TIME STEP LENGTH 1.72800E+05  2880.0      48.000      2.0000     5.47570E-03
 STRESS PERIOD TIME 5.18400E+06  86400.      1440.0      60.000     0.16427    
         TOTAL TIME 5.18400E+06  86400.      1440.0      60.000     0.16427    


end timestep


start timestep kper="1" kstp="31" mode="normal"

 UBDSV1 SAVING           STO-SS ON UNIT   1027 AT TIME STEP     31, STRESS PERIOD      1
 UBDSV1 SAVING     FLOW-JA-FACE ON UNIT   1027 AT TIME STEP     31, STRESS PERIOD      1

 WEL PACKAGE (WEL1) FLOW RATES   PERIOD      1   STEP       31
 -----------------------------------------------
   NUMBER   CELLID                    RATE      
 -----------------------------------------------
     1      (1,17,17)            -7.14285714E-05
     2      (1,33,17)            -7.14285714E-05
     3      (1,9,26)             -7.14285714E-05
     4      (1,17,35)            -7.14285714E-05
     5      (1,33,35)            -7.14285714E-05
     6      (1,26,26)            -7.14285714E-05
     7      (1,41,26)            -7.14285714E-05
 -----------------------------------------------




 WEL PACKAGE (WEL2) FLOW RATES   PERIOD      1   STEP       31
 -----------------------------------------------
   NUMBER   CELLID                    RATE      
 -----------------------------------------------
     1      (1,17,26)             2.50000000E-04
     2      (1,33,26)             2.50000000E-04
 -----------------------------------------------




 HEAD WILL BE SAVED ON UNIT 1028 AT END OF TIME STEP   31, STRESS PERIOD    1


  VOLUME BUDGET FOR ENTIRE MODEL AT END OF TIME STEP   31, STRESS PERIOD   1
  ---------------------------------------------------------------------------------------------------

     CUMULATIVE VOLUME      L**3       RATES FOR THIS TIME STEP      L**3/T          PACKAGE NAME    
     ------------------                 ------------------------                     ----------------

           IN:                                      IN:
           ---                                      ---
              STO-SS =           0.0000                STO-SS =           0.0000     STORAGE                          
                 WEL =           0.0000                   WEL =           0.0000     WEL1                             
                 WEL =       3.1000E-02                   WEL =       5.0000E-04     WEL2                             

            TOTAL IN =       3.1000E-02              TOTAL IN =       5.0000E-04

          OUT:                                     OUT:
          ----                                     ----
              STO-SS =           0.0000                STO-SS =           0.0000     STORAGE                          
                 WEL =       3.1000E-02                   WEL =       5.0000E-04     WEL1                             
                 WEL =           0.0000                   WEL =           0.0000     WEL2                             

           TOTAL OUT =       3.1000E-02             TOTAL OUT =       5.0000E-04

            IN - OUT =       1.2400E-11              IN - OUT =       2.0000E-13

 PERCENT DISCREPANCY =           0.00     PERCENT DISCREPANCY =           0.00




         TIME SUMMARY AT END OF TIME STEP   31 IN STRESS PERIOD    1
                    SECONDS     MINUTES      HOURS       DAYS        YEARS
                    -----------------------------------------------------------
   TIME STEP LENGTH 1.72800E+05  2880.0      48.000      2.0000     5.47570E-03
 STRESS PERIOD TIME 5.35680E+06  89280.      1488.0      62.000     0.16975    
         TOTAL TIME 5.35680E+06  89280.      1488.0      62.000     0.16975    


end timestep


start timestep kper="1" kstp="32" mode="normal"

 UBDSV1 SAVING           STO-SS ON UNIT   1027 AT TIME STEP     32, STRESS PERIOD      1
 UBDSV1 SAVING     FLOW-JA-FACE ON UNIT   1027 AT TIME STEP     32, STRESS PERIOD      1

 WEL PACKAGE (WEL1) FLOW RATES   PERIOD      1   STEP       32
 -----------------------------------------------
   NUMBER   CELLID                    RATE      
 -----------------------------------------------
     1      (1,17,17)            -7.14285714E-05
     2      (1,33,17)            -7.14285714E-05
     3      (1,9,26)             -7.14285714E-05
     4      (1,17,35)            -7.14285714E-05
     5      (1,33,35)            -7.14285714E-05
     6      (1,26,26)            -7.14285714E-05
     7      (1,41,26)            -7.14285714E-05
 -----------------------------------------------




 WEL PACKAGE (WEL2) FLOW RATES   PERIOD      1   STEP       32
 -----------------------------------------------
   NUMBER   CELLID                    RATE      
 -----------------------------------------------
     1      (1,17,26)             2.50000000E-04
     2      (1,33,26)             2.50000000E-04
 -----------------------------------------------




 HEAD WILL BE SAVED ON UNIT 1028 AT END OF TIME STEP   32, STRESS PERIOD    1


  VOLUME BUDGET FOR ENTIRE MODEL AT END OF TIME STEP   32, STRESS PERIOD   1
  ---------------------------------------------------------------------------------------------------

     CUMULATIVE VOLUME      L**3       RATES FOR THIS TIME STEP      L**3/T          PACKAGE NAME    
     ------------------                 ------------------------                     ----------------

           IN:                                      IN:
           ---                                      ---
              STO-SS =           0.0000                STO-SS =           0.0000     STORAGE                          
                 WEL =           0.0000                   WEL =           0.0000     WEL1                             
                 WEL =       3.2000E-02                   WEL =       5.0000E-04     WEL2                             

            TOTAL IN =       3.2000E-02              TOTAL IN =       5.0000E-04

          OUT:                                     OUT:
          ----                                     ----
              STO-SS =           0.0000                STO-SS =           0.0000     STORAGE                          
                 WEL =       3.2000E-02                   WEL =       5.0000E-04     WEL1                             
                 WEL =           0.0000                   WEL =           0.0000     WEL2                             

           TOTAL OUT =       3.2000E-02             TOTAL OUT =       5.0000E-04

            IN - OUT =       1.2800E-11              IN - OUT =       2.0000E-13

 PERCENT DISCREPANCY =           0.00     PERCENT DISCREPANCY =           0.00




         TIME SUMMARY AT END OF TIME STEP   32 IN STRESS PERIOD    1
                    SECONDS     MINUTES      HOURS       DAYS        YEARS
                    -----------------------------------------------------------
   TIME STEP LENGTH 1.72800E+05  2880.0      48.000      2.0000     5.47570E-03
 STRESS PERIOD TIME 5.52960E+06  92160.      1536.0      64.000     0.17522    
         TOTAL TIME 5.52960E+06  92160.      1536.0      64.000     0.17522    


end timestep


start timestep kper="1" kstp="33" mode="normal"

 UBDSV1 SAVING           STO-SS ON UNIT   1027 AT TIME STEP     33, STRESS PERIOD      1
 UBDSV1 SAVING     FLOW-JA-FACE ON UNIT   1027 AT TIME STEP     33, STRESS PERIOD      1

 WEL PACKAGE (WEL1) FLOW RATES   PERIOD      1   STEP       33
 -----------------------------------------------
   NUMBER   CELLID                    RATE      
 -----------------------------------------------
     1      (1,17,17)            -7.14285714E-05
     2      (1,33,17)            -7.14285714E-05
     3      (1,9,26)             -7.14285714E-05
     4      (1,17,35)            -7.14285714E-05
     5      (1,33,35)            -7.14285714E-05
     6      (1,26,26)            -7.14285714E-05
     7      (1,41,26)            -7.14285714E-05
 -----------------------------------------------




 WEL PACKAGE (WEL2) FLOW RATES   PERIOD      1   STEP       33
 -----------------------------------------------
   NUMBER   CELLID                    RATE      
 -----------------------------------------------
     1      (1,17,26)             2.50000000E-04
     2      (1,33,26)             2.50000000E-04
 -----------------------------------------------




 HEAD WILL BE SAVED ON UNIT 1028 AT END OF TIME STEP   33, STRESS PERIOD    1


  VOLUME BUDGET FOR ENTIRE MODEL AT END OF TIME STEP   33, STRESS PERIOD   1
  ---------------------------------------------------------------------------------------------------

     CUMULATIVE VOLUME      L**3       RATES FOR THIS TIME STEP      L**3/T          PACKAGE NAME    
     ------------------                 ------------------------                     ----------------

           IN:                                      IN:
           ---                                      ---
              STO-SS =           0.0000                STO-SS =           0.0000     STORAGE                          
                 WEL =           0.0000                   WEL =           0.0000     WEL1                             
                 WEL =       3.3000E-02                   WEL =       5.0000E-04     WEL2                             

            TOTAL IN =       3.3000E-02              TOTAL IN =       5.0000E-04

          OUT:                                     OUT:
          ----                                     ----
              STO-SS =           0.0000                STO-SS =           0.0000     STORAGE                          
                 WEL =       3.3000E-02                   WEL =       5.0000E-04     WEL1                             
                 WEL =           0.0000                   WEL =           0.0000     WEL2                             

           TOTAL OUT =       3.3000E-02             TOTAL OUT =       5.0000E-04

            IN - OUT =       1.3200E-11              IN - OUT =       2.0000E-13

 PERCENT DISCREPANCY =           0.00     PERCENT DISCREPANCY =           0.00




         TIME SUMMARY AT END OF TIME STEP   33 IN STRESS PERIOD    1
                    SECONDS     MINUTES      HOURS       DAYS        YEARS
                    -----------------------------------------------------------
   TIME STEP LENGTH 1.72800E+05  2880.0      48.000      2.0000     5.47570E-03
 STRESS PERIOD TIME 5.70240E+06  95040.      1584.0      66.000     0.18070    
         TOTAL TIME 5.70240E+06  95040.      1584.0      66.000     0.18070    


end timestep


start timestep kper="1" kstp="34" mode="normal"

 UBDSV1 SAVING           STO-SS ON UNIT   1027 AT TIME STEP     34, STRESS PERIOD      1
 UBDSV1 SAVING     FLOW-JA-FACE ON UNIT   1027 AT TIME STEP     34, STRESS PERIOD      1

 WEL PACKAGE (WEL1) FLOW RATES   PERIOD      1   STEP       34
 -----------------------------------------------
   NUMBER   CELLID                    RATE      
 -----------------------------------------------
     1      (1,17,17)            -7.14285714E-05
     2      (1,33,17)            -7.14285714E-05
     3      (1,9,26)             -7.14285714E-05
     4      (1,17,35)            -7.14285714E-05
     5      (1,33,35)            -7.14285714E-05
     6      (1,26,26)            -7.14285714E-05
     7      (1,41,26)            -7.14285714E-05
 -----------------------------------------------




 WEL PACKAGE (WEL2) FLOW RATES   PERIOD      1   STEP       34
 -----------------------------------------------
   NUMBER   CELLID                    RATE      
 -----------------------------------------------
     1      (1,17,26)             2.50000000E-04
     2      (1,33,26)             2.50000000E-04
 -----------------------------------------------




 HEAD WILL BE SAVED ON UNIT 1028 AT END OF TIME STEP   34, STRESS PERIOD    1


  VOLUME BUDGET FOR ENTIRE MODEL AT END OF TIME STEP   34, STRESS PERIOD   1
  ---------------------------------------------------------------------------------------------------

     CUMULATIVE VOLUME      L**3       RATES FOR THIS TIME STEP      L**3/T          PACKAGE NAME    
     ------------------                 ------------------------                     ----------------

           IN:                                      IN:
           ---                                      ---
              STO-SS =           0.0000                STO-SS =           0.0000     STORAGE                          
                 WEL =           0.0000                   WEL =           0.0000     WEL1                             
                 WEL =       3.4000E-02                   WEL =       5.0000E-04     WEL2                             

            TOTAL IN =       3.4000E-02              TOTAL IN =       5.0000E-04

          OUT:                                     OUT:
          ----                                     ----
              STO-SS =           0.0000                STO-SS =           0.0000     STORAGE                          
                 WEL =       3.4000E-02                   WEL =       5.0000E-04     WEL1                             
                 WEL =           0.0000                   WEL =           0.0000     WEL2                             

           TOTAL OUT =       3.4000E-02             TOTAL OUT =       5.0000E-04

            IN - OUT =       1.3600E-11              IN - OUT =       2.0000E-13

 PERCENT DISCREPANCY =           0.00     PERCENT DISCREPANCY =           0.00




         TIME SUMMARY AT END OF TIME STEP   34 IN STRESS PERIOD    1
                    SECONDS     MINUTES      HOURS       DAYS        YEARS
                    -----------------------------------------------------------
   TIME STEP LENGTH 1.72800E+05  2880.0      48.000      2.0000     5.47570E-03
 STRESS PERIOD TIME 5.87520E+06  97920.      1632.0      68.000     0.18617    
         TOTAL TIME 5.87520E+06  97920.      1632.0      68.000     0.18617    


end timestep


start timestep kper="1" kstp="35" mode="normal"

 UBDSV1 SAVING           STO-SS ON UNIT   1027 AT TIME STEP     35, STRESS PERIOD      1
 UBDSV1 SAVING     FLOW-JA-FACE ON UNIT   1027 AT TIME STEP     35, STRESS PERIOD      1

 WEL PACKAGE (WEL1) FLOW RATES   PERIOD      1   STEP       35
 -----------------------------------------------
   NUMBER   CELLID                    RATE      
 -----------------------------------------------
     1      (1,17,17)            -7.14285714E-05
     2      (1,33,17)            -7.14285714E-05
     3      (1,9,26)             -7.14285714E-05
     4      (1,17,35)            -7.14285714E-05
     5      (1,33,35)            -7.14285714E-05
     6      (1,26,26)            -7.14285714E-05
     7      (1,41,26)            -7.14285714E-05
 -----------------------------------------------




 WEL PACKAGE (WEL2) FLOW RATES   PERIOD      1   STEP       35
 -----------------------------------------------
   NUMBER   CELLID                    RATE      
 -----------------------------------------------
     1      (1,17,26)             2.50000000E-04
     2      (1,33,26)             2.50000000E-04
 -----------------------------------------------




 HEAD WILL BE SAVED ON UNIT 1028 AT END OF TIME STEP   35, STRESS PERIOD    1


  VOLUME BUDGET FOR ENTIRE MODEL AT END OF TIME STEP   35, STRESS PERIOD   1
  ---------------------------------------------------------------------------------------------------

     CUMULATIVE VOLUME      L**3       RATES FOR THIS TIME STEP      L**3/T          PACKAGE NAME    
     ------------------                 ------------------------                     ----------------

           IN:                                      IN:
           ---                                      ---
              STO-SS =           0.0000                STO-SS =           0.0000     STORAGE                          
                 WEL =           0.0000                   WEL =           0.0000     WEL1                             
                 WEL =       3.5000E-02                   WEL =       5.0000E-04     WEL2                             

            TOTAL IN =       3.5000E-02              TOTAL IN =       5.0000E-04

          OUT:                                     OUT:
          ----                                     ----
              STO-SS =           0.0000                STO-SS =           0.0000     STORAGE                          
                 WEL =       3.5000E-02                   WEL =       5.0000E-04     WEL1                             
                 WEL =           0.0000                   WEL =           0.0000     WEL2                             

           TOTAL OUT =       3.5000E-02             TOTAL OUT =       5.0000E-04

            IN - OUT =       1.4000E-11              IN - OUT =       2.0000E-13

 PERCENT DISCREPANCY =           0.00     PERCENT DISCREPANCY =           0.00




         TIME SUMMARY AT END OF TIME STEP   35 IN STRESS PERIOD    1
                    SECONDS     MINUTES      HOURS       DAYS        YEARS
                    -----------------------------------------------------------
   TIME STEP LENGTH 1.72800E+05  2880.0      48.000      2.0000     5.47570E-03
 STRESS PERIOD TIME 6.04800E+06 1.00800E+05  1680.0      70.000     0.19165    
         TOTAL TIME 6.04800E+06 1.00800E+05  1680.0      70.000     0.19165    


end timestep


start timestep kper="1" kstp="36" mode="normal"

 UBDSV1 SAVING           STO-SS ON UNIT   1027 AT TIME STEP     36, STRESS PERIOD      1
 UBDSV1 SAVING     FLOW-JA-FACE ON UNIT   1027 AT TIME STEP     36, STRESS PERIOD      1

 WEL PACKAGE (WEL1) FLOW RATES   PERIOD      1   STEP       36
 -----------------------------------------------
   NUMBER   CELLID                    RATE      
 -----------------------------------------------
     1      (1,17,17)            -7.14285714E-05
     2      (1,33,17)            -7.14285714E-05
     3      (1,9,26)             -7.14285714E-05
     4      (1,17,35)            -7.14285714E-05
     5      (1,33,35)            -7.14285714E-05
     6      (1,26,26)            -7.14285714E-05
     7      (1,41,26)            -7.14285714E-05
 -----------------------------------------------




 WEL PACKAGE (WEL2) FLOW RATES   PERIOD      1   STEP       36
 -----------------------------------------------
   NUMBER   CELLID                    RATE      
 -----------------------------------------------
     1      (1,17,26)             2.50000000E-04
     2      (1,33,26)             2.50000000E-04
 -----------------------------------------------




 HEAD WILL BE SAVED ON UNIT 1028 AT END OF TIME STEP   36, STRESS PERIOD    1


  VOLUME BUDGET FOR ENTIRE MODEL AT END OF TIME STEP   36, STRESS PERIOD   1
  ---------------------------------------------------------------------------------------------------

     CUMULATIVE VOLUME      L**3       RATES FOR THIS TIME STEP      L**3/T          PACKAGE NAME    
     ------------------                 ------------------------                     ----------------

           IN:                                      IN:
           ---                                      ---
              STO-SS =           0.0000                STO-SS =           0.0000     STORAGE                          
                 WEL =           0.0000                   WEL =           0.0000     WEL1                             
                 WEL =       3.6000E-02                   WEL =       5.0000E-04     WEL2                             

            TOTAL IN =       3.6000E-02              TOTAL IN =       5.0000E-04

          OUT:                                     OUT:
          ----                                     ----
              STO-SS =           0.0000                STO-SS =           0.0000     STORAGE                          
                 WEL =       3.6000E-02                   WEL =       5.0000E-04     WEL1                             
                 WEL =           0.0000                   WEL =           0.0000     WEL2                             

           TOTAL OUT =       3.6000E-02             TOTAL OUT =       5.0000E-04

            IN - OUT =       1.4400E-11              IN - OUT =       2.0000E-13

 PERCENT DISCREPANCY =           0.00     PERCENT DISCREPANCY =           0.00




         TIME SUMMARY AT END OF TIME STEP   36 IN STRESS PERIOD    1
                    SECONDS     MINUTES      HOURS       DAYS        YEARS
                    -----------------------------------------------------------
   TIME STEP LENGTH 1.72800E+05  2880.0      48.000      2.0000     5.47570E-03
 STRESS PERIOD TIME 6.22080E+06 1.03680E+05  1728.0      72.000     0.19713    
         TOTAL TIME 6.22080E+06 1.03680E+05  1728.0      72.000     0.19713    


end timestep


start timestep kper="1" kstp="37" mode="normal"

 UBDSV1 SAVING           STO-SS ON UNIT   1027 AT TIME STEP     37, STRESS PERIOD      1
 UBDSV1 SAVING     FLOW-JA-FACE ON UNIT   1027 AT TIME STEP     37, STRESS PERIOD      1

 WEL PACKAGE (WEL1) FLOW RATES   PERIOD      1   STEP       37
 -----------------------------------------------
   NUMBER   CELLID                    RATE      
 -----------------------------------------------
     1      (1,17,17)            -7.14285714E-05
     2      (1,33,17)            -7.14285714E-05
     3      (1,9,26)             -7.14285714E-05
     4      (1,17,35)            -7.14285714E-05
     5      (1,33,35)            -7.14285714E-05
     6      (1,26,26)            -7.14285714E-05
     7      (1,41,26)            -7.14285714E-05
 -----------------------------------------------




 WEL PACKAGE (WEL2) FLOW RATES   PERIOD      1   STEP       37
 -----------------------------------------------
   NUMBER   CELLID                    RATE      
 -----------------------------------------------
     1      (1,17,26)             2.50000000E-04
     2      (1,33,26)             2.50000000E-04
 -----------------------------------------------




 HEAD WILL BE SAVED ON UNIT 1028 AT END OF TIME STEP   37, STRESS PERIOD    1


  VOLUME BUDGET FOR ENTIRE MODEL AT END OF TIME STEP   37, STRESS PERIOD   1
  ---------------------------------------------------------------------------------------------------

     CUMULATIVE VOLUME      L**3       RATES FOR THIS TIME STEP      L**3/T          PACKAGE NAME    
     ------------------                 ------------------------                     ----------------

           IN:                                      IN:
           ---                                      ---
              STO-SS =           0.0000                STO-SS =           0.0000     STORAGE                          
                 WEL =           0.0000                   WEL =           0.0000     WEL1                             
                 WEL =       3.7000E-02                   WEL =       5.0000E-04     WEL2                             

            TOTAL IN =       3.7000E-02              TOTAL IN =       5.0000E-04

          OUT:                                     OUT:
          ----                                     ----
              STO-SS =           0.0000                STO-SS =           0.0000     STORAGE                          
                 WEL =       3.7000E-02                   WEL =       5.0000E-04     WEL1                             
                 WEL =           0.0000                   WEL =           0.0000     WEL2                             

           TOTAL OUT =       3.7000E-02             TOTAL OUT =       5.0000E-04

            IN - OUT =       1.4800E-11              IN - OUT =       2.0000E-13

 PERCENT DISCREPANCY =           0.00     PERCENT DISCREPANCY =           0.00




         TIME SUMMARY AT END OF TIME STEP   37 IN STRESS PERIOD    1
                    SECONDS     MINUTES      HOURS       DAYS        YEARS
                    -----------------------------------------------------------
   TIME STEP LENGTH 1.72800E+05  2880.0      48.000      2.0000     5.47570E-03
 STRESS PERIOD TIME 6.39360E+06 1.06560E+05  1776.0      74.000     0.20260    
         TOTAL TIME 6.39360E+06 1.06560E+05  1776.0      74.000     0.20260    


end timestep


start timestep kper="1" kstp="38" mode="normal"

 UBDSV1 SAVING           STO-SS ON UNIT   1027 AT TIME STEP     38, STRESS PERIOD      1
 UBDSV1 SAVING     FLOW-JA-FACE ON UNIT   1027 AT TIME STEP     38, STRESS PERIOD      1

 WEL PACKAGE (WEL1) FLOW RATES   PERIOD      1   STEP       38
 -----------------------------------------------
   NUMBER   CELLID                    RATE      
 -----------------------------------------------
     1      (1,17,17)            -7.14285714E-05
     2      (1,33,17)            -7.14285714E-05
     3      (1,9,26)             -7.14285714E-05
     4      (1,17,35)            -7.14285714E-05
     5      (1,33,35)            -7.14285714E-05
     6      (1,26,26)            -7.14285714E-05
     7      (1,41,26)            -7.14285714E-05
 -----------------------------------------------




 WEL PACKAGE (WEL2) FLOW RATES   PERIOD      1   STEP       38
 -----------------------------------------------
   NUMBER   CELLID                    RATE      
 -----------------------------------------------
     1      (1,17,26)             2.50000000E-04
     2      (1,33,26)             2.50000000E-04
 -----------------------------------------------




 HEAD WILL BE SAVED ON UNIT 1028 AT END OF TIME STEP   38, STRESS PERIOD    1


  VOLUME BUDGET FOR ENTIRE MODEL AT END OF TIME STEP   38, STRESS PERIOD   1
  ---------------------------------------------------------------------------------------------------

     CUMULATIVE VOLUME      L**3       RATES FOR THIS TIME STEP      L**3/T          PACKAGE NAME    
     ------------------                 ------------------------                     ----------------

           IN:                                      IN:
           ---                                      ---
              STO-SS =           0.0000                STO-SS =           0.0000     STORAGE                          
                 WEL =           0.0000                   WEL =           0.0000     WEL1                             
                 WEL =       3.8000E-02                   WEL =       5.0000E-04     WEL2                             

            TOTAL IN =       3.8000E-02              TOTAL IN =       5.0000E-04

          OUT:                                     OUT:
          ----                                     ----
              STO-SS =           0.0000                STO-SS =           0.0000     STORAGE                          
                 WEL =       3.8000E-02                   WEL =       5.0000E-04     WEL1                             
                 WEL =           0.0000                   WEL =           0.0000     WEL2                             

           TOTAL OUT =       3.8000E-02             TOTAL OUT =       5.0000E-04

            IN - OUT =       1.5200E-11              IN - OUT =       2.0000E-13

 PERCENT DISCREPANCY =           0.00     PERCENT DISCREPANCY =           0.00




         TIME SUMMARY AT END OF TIME STEP   38 IN STRESS PERIOD    1
                    SECONDS     MINUTES      HOURS       DAYS        YEARS
                    -----------------------------------------------------------
   TIME STEP LENGTH 1.72800E+05  2880.0      48.000      2.0000     5.47570E-03
 STRESS PERIOD TIME 6.56640E+06 1.09440E+05  1824.0      76.000     0.20808    
         TOTAL TIME 6.56640E+06 1.09440E+05  1824.0      76.000     0.20808    


end timestep


start timestep kper="1" kstp="39" mode="normal"

 UBDSV1 SAVING           STO-SS ON UNIT   1027 AT TIME STEP     39, STRESS PERIOD      1
 UBDSV1 SAVING     FLOW-JA-FACE ON UNIT   1027 AT TIME STEP     39, STRESS PERIOD      1

 WEL PACKAGE (WEL1) FLOW RATES   PERIOD      1   STEP       39
 -----------------------------------------------
   NUMBER   CELLID                    RATE      
 -----------------------------------------------
     1      (1,17,17)            -7.14285714E-05
     2      (1,33,17)            -7.14285714E-05
     3      (1,9,26)             -7.14285714E-05
     4      (1,17,35)            -7.14285714E-05
     5      (1,33,35)            -7.14285714E-05
     6      (1,26,26)            -7.14285714E-05
     7      (1,41,26)            -7.14285714E-05
 -----------------------------------------------




 WEL PACKAGE (WEL2) FLOW RATES   PERIOD      1   STEP       39
 -----------------------------------------------
   NUMBER   CELLID                    RATE      
 -----------------------------------------------
     1      (1,17,26)             2.50000000E-04
     2      (1,33,26)             2.50000000E-04
 -----------------------------------------------




 HEAD WILL BE SAVED ON UNIT 1028 AT END OF TIME STEP   39, STRESS PERIOD    1


  VOLUME BUDGET FOR ENTIRE MODEL AT END OF TIME STEP   39, STRESS PERIOD   1
  ---------------------------------------------------------------------------------------------------

     CUMULATIVE VOLUME      L**3       RATES FOR THIS TIME STEP      L**3/T          PACKAGE NAME    
     ------------------                 ------------------------                     ----------------

           IN:                                      IN:
           ---                                      ---
              STO-SS =           0.0000                STO-SS =           0.0000     STORAGE                          
                 WEL =           0.0000                   WEL =           0.0000     WEL1                             
                 WEL =       3.9000E-02                   WEL =       5.0000E-04     WEL2                             

            TOTAL IN =       3.9000E-02              TOTAL IN =       5.0000E-04

          OUT:                                     OUT:
          ----                                     ----
              STO-SS =           0.0000                STO-SS =           0.0000     STORAGE                          
                 WEL =       3.9000E-02                   WEL =       5.0000E-04     WEL1                             
                 WEL =           0.0000                   WEL =           0.0000     WEL2                             

           TOTAL OUT =       3.9000E-02             TOTAL OUT =       5.0000E-04

            IN - OUT =       1.5600E-11              IN - OUT =       2.0000E-13

 PERCENT DISCREPANCY =           0.00     PERCENT DISCREPANCY =           0.00




         TIME SUMMARY AT END OF TIME STEP   39 IN STRESS PERIOD    1
                    SECONDS     MINUTES      HOURS       DAYS        YEARS
                    -----------------------------------------------------------
   TIME STEP LENGTH 1.72800E+05  2880.0      48.000      2.0000     5.47570E-03
 STRESS PERIOD TIME 6.73920E+06 1.12320E+05  1872.0      78.000     0.21355    
         TOTAL TIME 6.73920E+06 1.12320E+05  1872.0      78.000     0.21355    


end timestep


start timestep kper="1" kstp="40" mode="normal"

 UBDSV1 SAVING           STO-SS ON UNIT   1027 AT TIME STEP     40, STRESS PERIOD      1
 UBDSV1 SAVING     FLOW-JA-FACE ON UNIT   1027 AT TIME STEP     40, STRESS PERIOD      1

 WEL PACKAGE (WEL1) FLOW RATES   PERIOD      1   STEP       40
 -----------------------------------------------
   NUMBER   CELLID                    RATE      
 -----------------------------------------------
     1      (1,17,17)            -7.14285714E-05
     2      (1,33,17)            -7.14285714E-05
     3      (1,9,26)             -7.14285714E-05
     4      (1,17,35)            -7.14285714E-05
     5      (1,33,35)            -7.14285714E-05
     6      (1,26,26)            -7.14285714E-05
     7      (1,41,26)            -7.14285714E-05
 -----------------------------------------------




 WEL PACKAGE (WEL2) FLOW RATES   PERIOD      1   STEP       40
 -----------------------------------------------
   NUMBER   CELLID                    RATE      
 -----------------------------------------------
     1      (1,17,26)             2.50000000E-04
     2      (1,33,26)             2.50000000E-04
 -----------------------------------------------




 HEAD WILL BE SAVED ON UNIT 1028 AT END OF TIME STEP   40, STRESS PERIOD    1


  VOLUME BUDGET FOR ENTIRE MODEL AT END OF TIME STEP   40, STRESS PERIOD   1
  ---------------------------------------------------------------------------------------------------

     CUMULATIVE VOLUME      L**3       RATES FOR THIS TIME STEP      L**3/T          PACKAGE NAME    
     ------------------                 ------------------------                     ----------------

           IN:                                      IN:
           ---                                      ---
              STO-SS =           0.0000                STO-SS =           0.0000     STORAGE                          
                 WEL =           0.0000                   WEL =           0.0000     WEL1                             
                 WEL =       4.0000E-02                   WEL =       5.0000E-04     WEL2                             

            TOTAL IN =       4.0000E-02              TOTAL IN =       5.0000E-04

          OUT:                                     OUT:
          ----                                     ----
              STO-SS =           0.0000                STO-SS =           0.0000     STORAGE                          
                 WEL =       4.0000E-02                   WEL =       5.0000E-04     WEL1                             
                 WEL =           0.0000                   WEL =           0.0000     WEL2                             

           TOTAL OUT =       4.0000E-02             TOTAL OUT =       5.0000E-04

            IN - OUT =       1.6000E-11              IN - OUT =       2.0000E-13

 PERCENT DISCREPANCY =           0.00     PERCENT DISCREPANCY =           0.00




         TIME SUMMARY AT END OF TIME STEP   40 IN STRESS PERIOD    1
                    SECONDS     MINUTES      HOURS       DAYS        YEARS
                    -----------------------------------------------------------
   TIME STEP LENGTH 1.72800E+05  2880.0      48.000      2.0000     5.47570E-03
 STRESS PERIOD TIME 6.91200E+06 1.15200E+05  1920.0      80.000     0.21903    
         TOTAL TIME 6.91200E+06 1.15200E+05  1920.0      80.000     0.21903    


end timestep


start timestep kper="1" kstp="41" mode="normal"

 UBDSV1 SAVING           STO-SS ON UNIT   1027 AT TIME STEP     41, STRESS PERIOD      1
 UBDSV1 SAVING     FLOW-JA-FACE ON UNIT   1027 AT TIME STEP     41, STRESS PERIOD      1

 WEL PACKAGE (WEL1) FLOW RATES   PERIOD      1   STEP       41
 -----------------------------------------------
   NUMBER   CELLID                    RATE      
 -----------------------------------------------
     1      (1,17,17)            -7.14285714E-05
     2      (1,33,17)            -7.14285714E-05
     3      (1,9,26)             -7.14285714E-05
     4      (1,17,35)            -7.14285714E-05
     5      (1,33,35)            -7.14285714E-05
     6      (1,26,26)            -7.14285714E-05
     7      (1,41,26)            -7.14285714E-05
 -----------------------------------------------




 WEL PACKAGE (WEL2) FLOW RATES   PERIOD      1   STEP       41
 -----------------------------------------------
   NUMBER   CELLID                    RATE      
 -----------------------------------------------
     1      (1,17,26)             2.50000000E-04
     2      (1,33,26)             2.50000000E-04
 -----------------------------------------------




 HEAD WILL BE SAVED ON UNIT 1028 AT END OF TIME STEP   41, STRESS PERIOD    1


  VOLUME BUDGET FOR ENTIRE MODEL AT END OF TIME STEP   41, STRESS PERIOD   1
  ---------------------------------------------------------------------------------------------------

     CUMULATIVE VOLUME      L**3       RATES FOR THIS TIME STEP      L**3/T          PACKAGE NAME    
     ------------------                 ------------------------                     ----------------

           IN:                                      IN:
           ---                                      ---
              STO-SS =           0.0000                STO-SS =           0.0000     STORAGE                          
                 WEL =           0.0000                   WEL =           0.0000     WEL1                             
                 WEL =       4.1000E-02                   WEL =       5.0000E-04     WEL2                             

            TOTAL IN =       4.1000E-02              TOTAL IN =       5.0000E-04

          OUT:                                     OUT:
          ----                                     ----
              STO-SS =           0.0000                STO-SS =           0.0000     STORAGE                          
                 WEL =       4.1000E-02                   WEL =       5.0000E-04     WEL1                             
                 WEL =           0.0000                   WEL =           0.0000     WEL2                             

           TOTAL OUT =       4.1000E-02             TOTAL OUT =       5.0000E-04

            IN - OUT =       1.6400E-11              IN - OUT =       2.0000E-13

 PERCENT DISCREPANCY =           0.00     PERCENT DISCREPANCY =           0.00




         TIME SUMMARY AT END OF TIME STEP   41 IN STRESS PERIOD    1
                    SECONDS     MINUTES      HOURS       DAYS        YEARS
                    -----------------------------------------------------------
   TIME STEP LENGTH 1.72800E+05  2880.0      48.000      2.0000     5.47570E-03
 STRESS PERIOD TIME 7.08480E+06 1.18080E+05  1968.0      82.000     0.22450    
         TOTAL TIME 7.08480E+06 1.18080E+05  1968.0      82.000     0.22450    


end timestep


start timestep kper="1" kstp="42" mode="normal"

 UBDSV1 SAVING           STO-SS ON UNIT   1027 AT TIME STEP     42, STRESS PERIOD      1
 UBDSV1 SAVING     FLOW-JA-FACE ON UNIT   1027 AT TIME STEP     42, STRESS PERIOD      1

 WEL PACKAGE (WEL1) FLOW RATES   PERIOD      1   STEP       42
 -----------------------------------------------
   NUMBER   CELLID                    RATE      
 -----------------------------------------------
     1      (1,17,17)            -7.14285714E-05
     2      (1,33,17)            -7.14285714E-05
     3      (1,9,26)             -7.14285714E-05
     4      (1,17,35)            -7.14285714E-05
     5      (1,33,35)            -7.14285714E-05
     6      (1,26,26)            -7.14285714E-05
     7      (1,41,26)            -7.14285714E-05
 -----------------------------------------------




 WEL PACKAGE (WEL2) FLOW RATES   PERIOD      1   STEP       42
 -----------------------------------------------
   NUMBER   CELLID                    RATE      
 -----------------------------------------------
     1      (1,17,26)             2.50000000E-04
     2      (1,33,26)             2.50000000E-04
 -----------------------------------------------




 HEAD WILL BE SAVED ON UNIT 1028 AT END OF TIME STEP   42, STRESS PERIOD    1


  VOLUME BUDGET FOR ENTIRE MODEL AT END OF TIME STEP   42, STRESS PERIOD   1
  ---------------------------------------------------------------------------------------------------

     CUMULATIVE VOLUME      L**3       RATES FOR THIS TIME STEP      L**3/T          PACKAGE NAME    
     ------------------                 ------------------------                     ----------------

           IN:                                      IN:
           ---                                      ---
              STO-SS =           0.0000                STO-SS =           0.0000     STORAGE                          
                 WEL =           0.0000                   WEL =           0.0000     WEL1                             
                 WEL =       4.2000E-02                   WEL =       5.0000E-04     WEL2                             

            TOTAL IN =       4.2000E-02              TOTAL IN =       5.0000E-04

          OUT:                                     OUT:
          ----                                     ----
              STO-SS =           0.0000                STO-SS =           0.0000     STORAGE                          
                 WEL =       4.2000E-02                   WEL =       5.0000E-04     WEL1                             
                 WEL =           0.0000                   WEL =           0.0000     WEL2                             

           TOTAL OUT =       4.2000E-02             TOTAL OUT =       5.0000E-04

            IN - OUT =       1.6800E-11              IN - OUT =       2.0000E-13

 PERCENT DISCREPANCY =           0.00     PERCENT DISCREPANCY =           0.00




         TIME SUMMARY AT END OF TIME STEP   42 IN STRESS PERIOD    1
                    SECONDS     MINUTES      HOURS       DAYS        YEARS
                    -----------------------------------------------------------
   TIME STEP LENGTH 1.72800E+05  2880.0      48.000      2.0000     5.47570E-03
 STRESS PERIOD TIME 7.25760E+06 1.20960E+05  2016.0      84.000     0.22998    
         TOTAL TIME 7.25760E+06 1.20960E+05  2016.0      84.000     0.22998    


end timestep


start timestep kper="1" kstp="43" mode="normal"

 UBDSV1 SAVING           STO-SS ON UNIT   1027 AT TIME STEP     43, STRESS PERIOD      1
 UBDSV1 SAVING     FLOW-JA-FACE ON UNIT   1027 AT TIME STEP     43, STRESS PERIOD      1

 WEL PACKAGE (WEL1) FLOW RATES   PERIOD      1   STEP       43
 -----------------------------------------------
   NUMBER   CELLID                    RATE      
 -----------------------------------------------
     1      (1,17,17)            -7.14285714E-05
     2      (1,33,17)            -7.14285714E-05
     3      (1,9,26)             -7.14285714E-05
     4      (1,17,35)            -7.14285714E-05
     5      (1,33,35)            -7.14285714E-05
     6      (1,26,26)            -7.14285714E-05
     7      (1,41,26)            -7.14285714E-05
 -----------------------------------------------




 WEL PACKAGE (WEL2) FLOW RATES   PERIOD      1   STEP       43
 -----------------------------------------------
   NUMBER   CELLID                    RATE      
 -----------------------------------------------
     1      (1,17,26)             2.50000000E-04
     2      (1,33,26)             2.50000000E-04
 -----------------------------------------------




 HEAD WILL BE SAVED ON UNIT 1028 AT END OF TIME STEP   43, STRESS PERIOD    1


  VOLUME BUDGET FOR ENTIRE MODEL AT END OF TIME STEP   43, STRESS PERIOD   1
  ---------------------------------------------------------------------------------------------------

     CUMULATIVE VOLUME      L**3       RATES FOR THIS TIME STEP      L**3/T          PACKAGE NAME    
     ------------------                 ------------------------                     ----------------

           IN:                                      IN:
           ---                                      ---
              STO-SS =           0.0000                STO-SS =           0.0000     STORAGE                          
                 WEL =           0.0000                   WEL =           0.0000     WEL1                             
                 WEL =       4.3000E-02                   WEL =       5.0000E-04     WEL2                             

            TOTAL IN =       4.3000E-02              TOTAL IN =       5.0000E-04

          OUT:                                     OUT:
          ----                                     ----
              STO-SS =           0.0000                STO-SS =           0.0000     STORAGE                          
                 WEL =       4.3000E-02                   WEL =       5.0000E-04     WEL1                             
                 WEL =           0.0000                   WEL =           0.0000     WEL2                             

           TOTAL OUT =       4.3000E-02             TOTAL OUT =       5.0000E-04

            IN - OUT =       1.7200E-11              IN - OUT =       2.0000E-13

 PERCENT DISCREPANCY =           0.00     PERCENT DISCREPANCY =           0.00




         TIME SUMMARY AT END OF TIME STEP   43 IN STRESS PERIOD    1
                    SECONDS     MINUTES      HOURS       DAYS        YEARS
                    -----------------------------------------------------------
   TIME STEP LENGTH 1.72800E+05  2880.0      48.000      2.0000     5.47570E-03
 STRESS PERIOD TIME 7.43040E+06 1.23840E+05  2064.0      86.000     0.23546    
         TOTAL TIME 7.43040E+06 1.23840E+05  2064.0      86.000     0.23546    


end timestep


start timestep kper="1" kstp="44" mode="normal"

 UBDSV1 SAVING           STO-SS ON UNIT   1027 AT TIME STEP     44, STRESS PERIOD      1
 UBDSV1 SAVING     FLOW-JA-FACE ON UNIT   1027 AT TIME STEP     44, STRESS PERIOD      1

 WEL PACKAGE (WEL1) FLOW RATES   PERIOD      1   STEP       44
 -----------------------------------------------
   NUMBER   CELLID                    RATE      
 -----------------------------------------------
     1      (1,17,17)            -7.14285714E-05
     2      (1,33,17)            -7.14285714E-05
     3      (1,9,26)             -7.14285714E-05
     4      (1,17,35)            -7.14285714E-05
     5      (1,33,35)            -7.14285714E-05
     6      (1,26,26)            -7.14285714E-05
     7      (1,41,26)            -7.14285714E-05
 -----------------------------------------------




 WEL PACKAGE (WEL2) FLOW RATES   PERIOD      1   STEP       44
 -----------------------------------------------
   NUMBER   CELLID                    RATE      
 -----------------------------------------------
     1      (1,17,26)             2.50000000E-04
     2      (1,33,26)             2.50000000E-04
 -----------------------------------------------




 HEAD WILL BE SAVED ON UNIT 1028 AT END OF TIME STEP   44, STRESS PERIOD    1


  VOLUME BUDGET FOR ENTIRE MODEL AT END OF TIME STEP   44, STRESS PERIOD   1
  ---------------------------------------------------------------------------------------------------

     CUMULATIVE VOLUME      L**3       RATES FOR THIS TIME STEP      L**3/T          PACKAGE NAME    
     ------------------                 ------------------------                     ----------------

           IN:                                      IN:
           ---                                      ---
              STO-SS =           0.0000                STO-SS =           0.0000     STORAGE                          
                 WEL =           0.0000                   WEL =           0.0000     WEL1                             
                 WEL =       4.4000E-02                   WEL =       5.0000E-04     WEL2                             

            TOTAL IN =       4.4000E-02              TOTAL IN =       5.0000E-04

          OUT:                                     OUT:
          ----                                     ----
              STO-SS =           0.0000                STO-SS =           0.0000     STORAGE                          
                 WEL =       4.4000E-02                   WEL =       5.0000E-04     WEL1                             
                 WEL =           0.0000                   WEL =           0.0000     WEL2                             

           TOTAL OUT =       4.4000E-02             TOTAL OUT =       5.0000E-04

            IN - OUT =       1.7600E-11              IN - OUT =       2.0000E-13

 PERCENT DISCREPANCY =           0.00     PERCENT DISCREPANCY =           0.00




         TIME SUMMARY AT END OF TIME STEP   44 IN STRESS PERIOD    1
                    SECONDS     MINUTES      HOURS       DAYS        YEARS
                    -----------------------------------------------------------
   TIME STEP LENGTH 1.72800E+05  2880.0      48.000      2.0000     5.47570E-03
 STRESS PERIOD TIME 7.60320E+06 1.26720E+05  2112.0      88.000     0.24093    
         TOTAL TIME 7.60320E+06 1.26720E+05  2112.0      88.000     0.24093    


end timestep


start timestep kper="1" kstp="45" mode="normal"

 UBDSV1 SAVING           STO-SS ON UNIT   1027 AT TIME STEP     45, STRESS PERIOD      1
 UBDSV1 SAVING     FLOW-JA-FACE ON UNIT   1027 AT TIME STEP     45, STRESS PERIOD      1

 WEL PACKAGE (WEL1) FLOW RATES   PERIOD      1   STEP       45
 -----------------------------------------------
   NUMBER   CELLID                    RATE      
 -----------------------------------------------
     1      (1,17,17)            -7.14285714E-05
     2      (1,33,17)            -7.14285714E-05
     3      (1,9,26)             -7.14285714E-05
     4      (1,17,35)            -7.14285714E-05
     5      (1,33,35)            -7.14285714E-05
     6      (1,26,26)            -7.14285714E-05
     7      (1,41,26)            -7.14285714E-05
 -----------------------------------------------




 WEL PACKAGE (WEL2) FLOW RATES   PERIOD      1   STEP       45
 -----------------------------------------------
   NUMBER   CELLID                    RATE      
 -----------------------------------------------
     1      (1,17,26)             2.50000000E-04
     2      (1,33,26)             2.50000000E-04
 -----------------------------------------------




 HEAD WILL BE SAVED ON UNIT 1028 AT END OF TIME STEP   45, STRESS PERIOD    1


  VOLUME BUDGET FOR ENTIRE MODEL AT END OF TIME STEP   45, STRESS PERIOD   1
  ---------------------------------------------------------------------------------------------------

     CUMULATIVE VOLUME      L**3       RATES FOR THIS TIME STEP      L**3/T          PACKAGE NAME    
     ------------------                 ------------------------                     ----------------

           IN:                                      IN:
           ---                                      ---
              STO-SS =           0.0000                STO-SS =           0.0000     STORAGE                          
                 WEL =           0.0000                   WEL =           0.0000     WEL1                             
                 WEL =       4.5000E-02                   WEL =       5.0000E-04     WEL2                             

            TOTAL IN =       4.5000E-02              TOTAL IN =       5.0000E-04

          OUT:                                     OUT:
          ----                                     ----
              STO-SS =           0.0000                STO-SS =           0.0000     STORAGE                          
                 WEL =       4.5000E-02                   WEL =       5.0000E-04     WEL1                             
                 WEL =           0.0000                   WEL =           0.0000     WEL2                             

           TOTAL OUT =       4.5000E-02             TOTAL OUT =       5.0000E-04

            IN - OUT =       1.8000E-11              IN - OUT =       2.0000E-13

 PERCENT DISCREPANCY =           0.00     PERCENT DISCREPANCY =           0.00




         TIME SUMMARY AT END OF TIME STEP   45 IN STRESS PERIOD    1
                    SECONDS     MINUTES      HOURS       DAYS        YEARS
                    -----------------------------------------------------------
   TIME STEP LENGTH 1.72800E+05  2880.0      48.000      2.0000     5.47570E-03
 STRESS PERIOD TIME 7.77600E+06 1.29600E+05  2160.0      90.000     0.24641    
         TOTAL TIME 7.77600E+06 1.29600E+05  2160.0      90.000     0.24641    


end timestep


start timestep kper="1" kstp="46" mode="normal"

 UBDSV1 SAVING           STO-SS ON UNIT   1027 AT TIME STEP     46, STRESS PERIOD      1
 UBDSV1 SAVING     FLOW-JA-FACE ON UNIT   1027 AT TIME STEP     46, STRESS PERIOD      1

 WEL PACKAGE (WEL1) FLOW RATES   PERIOD      1   STEP       46
 -----------------------------------------------
   NUMBER   CELLID                    RATE      
 -----------------------------------------------
     1      (1,17,17)            -7.14285714E-05
     2      (1,33,17)            -7.14285714E-05
     3      (1,9,26)             -7.14285714E-05
     4      (1,17,35)            -7.14285714E-05
     5      (1,33,35)            -7.14285714E-05
     6      (1,26,26)            -7.14285714E-05
     7      (1,41,26)            -7.14285714E-05
 -----------------------------------------------




 WEL PACKAGE (WEL2) FLOW RATES   PERIOD      1   STEP       46
 -----------------------------------------------
   NUMBER   CELLID                    RATE      
 -----------------------------------------------
     1      (1,17,26)             2.50000000E-04
     2      (1,33,26)             2.50000000E-04
 -----------------------------------------------




 HEAD WILL BE SAVED ON UNIT 1028 AT END OF TIME STEP   46, STRESS PERIOD    1


  VOLUME BUDGET FOR ENTIRE MODEL AT END OF TIME STEP   46, STRESS PERIOD   1
  ---------------------------------------------------------------------------------------------------

     CUMULATIVE VOLUME      L**3       RATES FOR THIS TIME STEP      L**3/T          PACKAGE NAME    
     ------------------                 ------------------------                     ----------------

           IN:                                      IN:
           ---                                      ---
              STO-SS =           0.0000                STO-SS =           0.0000     STORAGE                          
                 WEL =           0.0000                   WEL =           0.0000     WEL1                             
                 WEL =       4.6000E-02                   WEL =       5.0000E-04     WEL2                             

            TOTAL IN =       4.6000E-02              TOTAL IN =       5.0000E-04

          OUT:                                     OUT:
          ----                                     ----
              STO-SS =           0.0000                STO-SS =           0.0000     STORAGE                          
                 WEL =       4.6000E-02                   WEL =       5.0000E-04     WEL1                             
                 WEL =           0.0000                   WEL =           0.0000     WEL2                             

           TOTAL OUT =       4.6000E-02             TOTAL OUT =       5.0000E-04

            IN - OUT =       1.8400E-11              IN - OUT =       2.0000E-13

 PERCENT DISCREPANCY =           0.00     PERCENT DISCREPANCY =           0.00




         TIME SUMMARY AT END OF TIME STEP   46 IN STRESS PERIOD    1
                    SECONDS     MINUTES      HOURS       DAYS        YEARS
                    -----------------------------------------------------------
   TIME STEP LENGTH 1.72800E+05  2880.0      48.000      2.0000     5.47570E-03
 STRESS PERIOD TIME 7.94880E+06 1.32480E+05  2208.0      92.000     0.25188    
         TOTAL TIME 7.94880E+06 1.32480E+05  2208.0      92.000     0.25188    


end timestep


start timestep kper="1" kstp="47" mode="normal"

 UBDSV1 SAVING           STO-SS ON UNIT   1027 AT TIME STEP     47, STRESS PERIOD      1
 UBDSV1 SAVING     FLOW-JA-FACE ON UNIT   1027 AT TIME STEP     47, STRESS PERIOD      1

 WEL PACKAGE (WEL1) FLOW RATES   PERIOD      1   STEP       47
 -----------------------------------------------
   NUMBER   CELLID                    RATE      
 -----------------------------------------------
     1      (1,17,17)            -7.14285714E-05
     2      (1,33,17)            -7.14285714E-05
     3      (1,9,26)             -7.14285714E-05
     4      (1,17,35)            -7.14285714E-05
     5      (1,33,35)            -7.14285714E-05
     6      (1,26,26)            -7.14285714E-05
     7      (1,41,26)            -7.14285714E-05
 -----------------------------------------------




 WEL PACKAGE (WEL2) FLOW RATES   PERIOD      1   STEP       47
 -----------------------------------------------
   NUMBER   CELLID                    RATE      
 -----------------------------------------------
     1      (1,17,26)             2.50000000E-04
     2      (1,33,26)             2.50000000E-04
 -----------------------------------------------




 HEAD WILL BE SAVED ON UNIT 1028 AT END OF TIME STEP   47, STRESS PERIOD    1


  VOLUME BUDGET FOR ENTIRE MODEL AT END OF TIME STEP   47, STRESS PERIOD   1
  ---------------------------------------------------------------------------------------------------

     CUMULATIVE VOLUME      L**3       RATES FOR THIS TIME STEP      L**3/T          PACKAGE NAME    
     ------------------                 ------------------------                     ----------------

           IN:                                      IN:
           ---                                      ---
              STO-SS =           0.0000                STO-SS =           0.0000     STORAGE                          
                 WEL =           0.0000                   WEL =           0.0000     WEL1                             
                 WEL =       4.7000E-02                   WEL =       5.0000E-04     WEL2                             

            TOTAL IN =       4.7000E-02              TOTAL IN =       5.0000E-04

          OUT:                                     OUT:
          ----                                     ----
              STO-SS =           0.0000                STO-SS =           0.0000     STORAGE                          
                 WEL =       4.7000E-02                   WEL =       5.0000E-04     WEL1                             
                 WEL =           0.0000                   WEL =           0.0000     WEL2                             

           TOTAL OUT =       4.7000E-02             TOTAL OUT =       5.0000E-04

            IN - OUT =       1.8800E-11              IN - OUT =       2.0000E-13

 PERCENT DISCREPANCY =           0.00     PERCENT DISCREPANCY =           0.00




         TIME SUMMARY AT END OF TIME STEP   47 IN STRESS PERIOD    1
                    SECONDS     MINUTES      HOURS       DAYS        YEARS
                    -----------------------------------------------------------
   TIME STEP LENGTH 1.72800E+05  2880.0      48.000      2.0000     5.47570E-03
 STRESS PERIOD TIME 8.12160E+06 1.35360E+05  2256.0      94.000     0.25736    
         TOTAL TIME 8.12160E+06 1.35360E+05  2256.0      94.000     0.25736    


end timestep


start timestep kper="1" kstp="48" mode="normal"

 UBDSV1 SAVING           STO-SS ON UNIT   1027 AT TIME STEP     48, STRESS PERIOD      1
 UBDSV1 SAVING     FLOW-JA-FACE ON UNIT   1027 AT TIME STEP     48, STRESS PERIOD      1

 WEL PACKAGE (WEL1) FLOW RATES   PERIOD      1   STEP       48
 -----------------------------------------------
   NUMBER   CELLID                    RATE      
 -----------------------------------------------
     1      (1,17,17)            -7.14285714E-05
     2      (1,33,17)            -7.14285714E-05
     3      (1,9,26)             -7.14285714E-05
     4      (1,17,35)            -7.14285714E-05
     5      (1,33,35)            -7.14285714E-05
     6      (1,26,26)            -7.14285714E-05
     7      (1,41,26)            -7.14285714E-05
 -----------------------------------------------




 WEL PACKAGE (WEL2) FLOW RATES   PERIOD      1   STEP       48
 -----------------------------------------------
   NUMBER   CELLID                    RATE      
 -----------------------------------------------
     1      (1,17,26)             2.50000000E-04
     2      (1,33,26)             2.50000000E-04
 -----------------------------------------------




 HEAD WILL BE SAVED ON UNIT 1028 AT END OF TIME STEP   48, STRESS PERIOD    1


  VOLUME BUDGET FOR ENTIRE MODEL AT END OF TIME STEP   48, STRESS PERIOD   1
  ---------------------------------------------------------------------------------------------------

     CUMULATIVE VOLUME      L**3       RATES FOR THIS TIME STEP      L**3/T          PACKAGE NAME    
     ------------------                 ------------------------                     ----------------

           IN:                                      IN:
           ---                                      ---
              STO-SS =           0.0000                STO-SS =           0.0000     STORAGE                          
                 WEL =           0.0000                   WEL =           0.0000     WEL1                             
                 WEL =       4.8000E-02                   WEL =       5.0000E-04     WEL2                             

            TOTAL IN =       4.8000E-02              TOTAL IN =       5.0000E-04

          OUT:                                     OUT:
          ----                                     ----
              STO-SS =           0.0000                STO-SS =           0.0000     STORAGE                          
                 WEL =       4.8000E-02                   WEL =       5.0000E-04     WEL1                             
                 WEL =           0.0000                   WEL =           0.0000     WEL2                             

           TOTAL OUT =       4.8000E-02             TOTAL OUT =       5.0000E-04

            IN - OUT =       1.9200E-11              IN - OUT =       2.0000E-13

 PERCENT DISCREPANCY =           0.00     PERCENT DISCREPANCY =           0.00




         TIME SUMMARY AT END OF TIME STEP   48 IN STRESS PERIOD    1
                    SECONDS     MINUTES      HOURS       DAYS        YEARS
                    -----------------------------------------------------------
   TIME STEP LENGTH 1.72800E+05  2880.0      48.000      2.0000     5.47570E-03
 STRESS PERIOD TIME 8.29440E+06 1.38240E+05  2304.0      96.000     0.26283    
         TOTAL TIME 8.29440E+06 1.38240E+05  2304.0      96.000     0.26283    


end timestep


start timestep kper="1" kstp="49" mode="normal"

 UBDSV1 SAVING           STO-SS ON UNIT   1027 AT TIME STEP     49, STRESS PERIOD      1
 UBDSV1 SAVING     FLOW-JA-FACE ON UNIT   1027 AT TIME STEP     49, STRESS PERIOD      1

 WEL PACKAGE (WEL1) FLOW RATES   PERIOD      1   STEP       49
 -----------------------------------------------
   NUMBER   CELLID                    RATE      
 -----------------------------------------------
     1      (1,17,17)            -7.14285714E-05
     2      (1,33,17)            -7.14285714E-05
     3      (1,9,26)             -7.14285714E-05
     4      (1,17,35)            -7.14285714E-05
     5      (1,33,35)            -7.14285714E-05
     6      (1,26,26)            -7.14285714E-05
     7      (1,41,26)            -7.14285714E-05
 -----------------------------------------------




 WEL PACKAGE (WEL2) FLOW RATES   PERIOD      1   STEP       49
 -----------------------------------------------
   NUMBER   CELLID                    RATE      
 -----------------------------------------------
     1      (1,17,26)             2.50000000E-04
     2      (1,33,26)             2.50000000E-04
 -----------------------------------------------




 HEAD WILL BE SAVED ON UNIT 1028 AT END OF TIME STEP   49, STRESS PERIOD    1


  VOLUME BUDGET FOR ENTIRE MODEL AT END OF TIME STEP   49, STRESS PERIOD   1
  ---------------------------------------------------------------------------------------------------

     CUMULATIVE VOLUME      L**3       RATES FOR THIS TIME STEP      L**3/T          PACKAGE NAME    
     ------------------                 ------------------------                     ----------------

           IN:                                      IN:
           ---                                      ---
              STO-SS =           0.0000                STO-SS =           0.0000     STORAGE                          
                 WEL =           0.0000                   WEL =           0.0000     WEL1                             
                 WEL =       4.9000E-02                   WEL =       5.0000E-04     WEL2                             

            TOTAL IN =       4.9000E-02              TOTAL IN =       5.0000E-04

          OUT:                                     OUT:
          ----                                     ----
              STO-SS =           0.0000                STO-SS =           0.0000     STORAGE                          
                 WEL =       4.9000E-02                   WEL =       5.0000E-04     WEL1                             
                 WEL =           0.0000                   WEL =           0.0000     WEL2                             

           TOTAL OUT =       4.9000E-02             TOTAL OUT =       5.0000E-04

            IN - OUT =       1.9600E-11              IN - OUT =       2.0000E-13

 PERCENT DISCREPANCY =           0.00     PERCENT DISCREPANCY =           0.00




         TIME SUMMARY AT END OF TIME STEP   49 IN STRESS PERIOD    1
                    SECONDS     MINUTES      HOURS       DAYS        YEARS
                    -----------------------------------------------------------
   TIME STEP LENGTH 1.72800E+05  2880.0      48.000      2.0000     5.47570E-03
 STRESS PERIOD TIME 8.46720E+06 1.41120E+05  2352.0      98.000     0.26831    
         TOTAL TIME 8.46720E+06 1.41120E+05  2352.0      98.000     0.26831    


end timestep


start timestep kper="1" kstp="50" mode="normal"

 UBDSV1 SAVING           STO-SS ON UNIT   1027 AT TIME STEP     50, STRESS PERIOD      1
 UBDSV1 SAVING     FLOW-JA-FACE ON UNIT   1027 AT TIME STEP     50, STRESS PERIOD      1

 WEL PACKAGE (WEL1) FLOW RATES   PERIOD      1   STEP       50
 -----------------------------------------------
   NUMBER   CELLID                    RATE      
 -----------------------------------------------
     1      (1,17,17)            -7.14285714E-05
     2      (1,33,17)            -7.14285714E-05
     3      (1,9,26)             -7.14285714E-05
     4      (1,17,35)            -7.14285714E-05
     5      (1,33,35)            -7.14285714E-05
     6      (1,26,26)            -7.14285714E-05
     7      (1,41,26)            -7.14285714E-05
 -----------------------------------------------




 WEL PACKAGE (WEL2) FLOW RATES   PERIOD      1   STEP       50
 -----------------------------------------------
   NUMBER   CELLID                    RATE      
 -----------------------------------------------
     1      (1,17,26)             2.50000000E-04
     2      (1,33,26)             2.50000000E-04
 -----------------------------------------------




 HEAD WILL BE SAVED ON UNIT 1028 AT END OF TIME STEP   50, STRESS PERIOD    1


  VOLUME BUDGET FOR ENTIRE MODEL AT END OF TIME STEP   50, STRESS PERIOD   1
  ---------------------------------------------------------------------------------------------------

     CUMULATIVE VOLUME      L**3       RATES FOR THIS TIME STEP      L**3/T          PACKAGE NAME    
     ------------------                 ------------------------                     ----------------

           IN:                                      IN:
           ---                                      ---
              STO-SS =           0.0000                STO-SS =           0.0000     STORAGE                          
                 WEL =           0.0000                   WEL =           0.0000     WEL1                             
                 WEL =       5.0000E-02                   WEL =       5.0000E-04     WEL2                             

            TOTAL IN =       5.0000E-02              TOTAL IN =       5.0000E-04

          OUT:                                     OUT:
          ----                                     ----
              STO-SS =           0.0000                STO-SS =           0.0000     STORAGE                          
                 WEL =       5.0000E-02                   WEL =       5.0000E-04     WEL1                             
                 WEL =           0.0000                   WEL =           0.0000     WEL2                             

           TOTAL OUT =       5.0000E-02             TOTAL OUT =       5.0000E-04

            IN - OUT =       2.0000E-11              IN - OUT =       2.0000E-13

 PERCENT DISCREPANCY =           0.00     PERCENT DISCREPANCY =           0.00




         TIME SUMMARY AT END OF TIME STEP   50 IN STRESS PERIOD    1
                    SECONDS     MINUTES      HOURS       DAYS        YEARS
                    -----------------------------------------------------------
   TIME STEP LENGTH 1.72800E+05  2880.0      48.000      2.0000     5.47570E-03
 STRESS PERIOD TIME 8.64000E+06 1.44000E+05  2400.0      100.00     0.27379    
         TOTAL TIME 8.64000E+06 1.44000E+05  2400.0      100.00     0.27379    


end timestep


start timestep kper="1" kstp="51" mode="normal"

 UBDSV1 SAVING           STO-SS ON UNIT   1027 AT TIME STEP     51, STRESS PERIOD      1
 UBDSV1 SAVING     FLOW-JA-FACE ON UNIT   1027 AT TIME STEP     51, STRESS PERIOD      1

 WEL PACKAGE (WEL1) FLOW RATES   PERIOD      1   STEP       51
 -----------------------------------------------
   NUMBER   CELLID                    RATE      
 -----------------------------------------------
     1      (1,17,17)            -7.14285714E-05
     2      (1,33,17)            -7.14285714E-05
     3      (1,9,26)             -7.14285714E-05
     4      (1,17,35)            -7.14285714E-05
     5      (1,33,35)            -7.14285714E-05
     6      (1,26,26)            -7.14285714E-05
     7      (1,41,26)            -7.14285714E-05
 -----------------------------------------------




 WEL PACKAGE (WEL2) FLOW RATES   PERIOD      1   STEP       51
 -----------------------------------------------
   NUMBER   CELLID                    RATE      
 -----------------------------------------------
     1      (1,17,26)             2.50000000E-04
     2      (1,33,26)             2.50000000E-04
 -----------------------------------------------




 HEAD WILL BE SAVED ON UNIT 1028 AT END OF TIME STEP   51, STRESS PERIOD    1


  VOLUME BUDGET FOR ENTIRE MODEL AT END OF TIME STEP   51, STRESS PERIOD   1
  ---------------------------------------------------------------------------------------------------

     CUMULATIVE VOLUME      L**3       RATES FOR THIS TIME STEP      L**3/T          PACKAGE NAME    
     ------------------                 ------------------------                     ----------------

           IN:                                      IN:
           ---                                      ---
              STO-SS =           0.0000                STO-SS =           0.0000     STORAGE                          
                 WEL =           0.0000                   WEL =           0.0000     WEL1                             
                 WEL =       5.1000E-02                   WEL =       5.0000E-04     WEL2                             

            TOTAL IN =       5.1000E-02              TOTAL IN =       5.0000E-04

          OUT:                                     OUT:
          ----                                     ----
              STO-SS =           0.0000                STO-SS =           0.0000     STORAGE                          
                 WEL =       5.1000E-02                   WEL =       5.0000E-04     WEL1                             
                 WEL =           0.0000                   WEL =           0.0000     WEL2                             

           TOTAL OUT =       5.1000E-02             TOTAL OUT =       5.0000E-04

            IN - OUT =       2.0400E-11              IN - OUT =       2.0000E-13

 PERCENT DISCREPANCY =           0.00     PERCENT DISCREPANCY =           0.00




         TIME SUMMARY AT END OF TIME STEP   51 IN STRESS PERIOD    1
                    SECONDS     MINUTES      HOURS       DAYS        YEARS
                    -----------------------------------------------------------
   TIME STEP LENGTH 1.72800E+05  2880.0      48.000      2.0000     5.47570E-03
 STRESS PERIOD TIME 8.81280E+06 1.46880E+05  2448.0      102.00     0.27926    
         TOTAL TIME 8.81280E+06 1.46880E+05  2448.0      102.00     0.27926    


end timestep


start timestep kper="1" kstp="52" mode="normal"

 UBDSV1 SAVING           STO-SS ON UNIT   1027 AT TIME STEP     52, STRESS PERIOD      1
 UBDSV1 SAVING     FLOW-JA-FACE ON UNIT   1027 AT TIME STEP     52, STRESS PERIOD      1

 WEL PACKAGE (WEL1) FLOW RATES   PERIOD      1   STEP       52
 -----------------------------------------------
   NUMBER   CELLID                    RATE      
 -----------------------------------------------
     1      (1,17,17)            -7.14285714E-05
     2      (1,33,17)            -7.14285714E-05
     3      (1,9,26)             -7.14285714E-05
     4      (1,17,35)            -7.14285714E-05
     5      (1,33,35)            -7.14285714E-05
     6      (1,26,26)            -7.14285714E-05
     7      (1,41,26)            -7.14285714E-05
 -----------------------------------------------




 WEL PACKAGE (WEL2) FLOW RATES   PERIOD      1   STEP       52
 -----------------------------------------------
   NUMBER   CELLID                    RATE      
 -----------------------------------------------
     1      (1,17,26)             2.50000000E-04
     2      (1,33,26)             2.50000000E-04
 -----------------------------------------------




 HEAD WILL BE SAVED ON UNIT 1028 AT END OF TIME STEP   52, STRESS PERIOD    1


  VOLUME BUDGET FOR ENTIRE MODEL AT END OF TIME STEP   52, STRESS PERIOD   1
  ---------------------------------------------------------------------------------------------------

     CUMULATIVE VOLUME      L**3       RATES FOR THIS TIME STEP      L**3/T          PACKAGE NAME    
     ------------------                 ------------------------                     ----------------

           IN:                                      IN:
           ---                                      ---
              STO-SS =           0.0000                STO-SS =           0.0000     STORAGE                          
                 WEL =           0.0000                   WEL =           0.0000     WEL1                             
                 WEL =       5.2000E-02                   WEL =       5.0000E-04     WEL2                             

            TOTAL IN =       5.2000E-02              TOTAL IN =       5.0000E-04

          OUT:                                     OUT:
          ----                                     ----
              STO-SS =           0.0000                STO-SS =           0.0000     STORAGE                          
                 WEL =       5.2000E-02                   WEL =       5.0000E-04     WEL1                             
                 WEL =           0.0000                   WEL =           0.0000     WEL2                             

           TOTAL OUT =       5.2000E-02             TOTAL OUT =       5.0000E-04

            IN - OUT =       2.0800E-11              IN - OUT =       2.0000E-13

 PERCENT DISCREPANCY =           0.00     PERCENT DISCREPANCY =           0.00




         TIME SUMMARY AT END OF TIME STEP   52 IN STRESS PERIOD    1
                    SECONDS     MINUTES      HOURS       DAYS        YEARS
                    -----------------------------------------------------------
   TIME STEP LENGTH 1.72800E+05  2880.0      48.000      2.0000     5.47570E-03
 STRESS PERIOD TIME 8.98560E+06 1.49760E+05  2496.0      104.00     0.28474    
         TOTAL TIME 8.98560E+06 1.49760E+05  2496.0      104.00     0.28474    


end timestep


start timestep kper="1" kstp="53" mode="normal"

 UBDSV1 SAVING           STO-SS ON UNIT   1027 AT TIME STEP     53, STRESS PERIOD      1
 UBDSV1 SAVING     FLOW-JA-FACE ON UNIT   1027 AT TIME STEP     53, STRESS PERIOD      1

 WEL PACKAGE (WEL1) FLOW RATES   PERIOD      1   STEP       53
 -----------------------------------------------
   NUMBER   CELLID                    RATE      
 -----------------------------------------------
     1      (1,17,17)            -7.14285714E-05
     2      (1,33,17)            -7.14285714E-05
     3      (1,9,26)             -7.14285714E-05
     4      (1,17,35)            -7.14285714E-05
     5      (1,33,35)            -7.14285714E-05
     6      (1,26,26)            -7.14285714E-05
     7      (1,41,26)            -7.14285714E-05
 -----------------------------------------------




 WEL PACKAGE (WEL2) FLOW RATES   PERIOD      1   STEP       53
 -----------------------------------------------
   NUMBER   CELLID                    RATE      
 -----------------------------------------------
     1      (1,17,26)             2.50000000E-04
     2      (1,33,26)             2.50000000E-04
 -----------------------------------------------




 HEAD WILL BE SAVED ON UNIT 1028 AT END OF TIME STEP   53, STRESS PERIOD    1


  VOLUME BUDGET FOR ENTIRE MODEL AT END OF TIME STEP   53, STRESS PERIOD   1
  ---------------------------------------------------------------------------------------------------

     CUMULATIVE VOLUME      L**3       RATES FOR THIS TIME STEP      L**3/T          PACKAGE NAME    
     ------------------                 ------------------------                     ----------------

           IN:                                      IN:
           ---                                      ---
              STO-SS =           0.0000                STO-SS =           0.0000     STORAGE                          
                 WEL =           0.0000                   WEL =           0.0000     WEL1                             
                 WEL =       5.3000E-02                   WEL =       5.0000E-04     WEL2                             

            TOTAL IN =       5.3000E-02              TOTAL IN =       5.0000E-04

          OUT:                                     OUT:
          ----                                     ----
              STO-SS =           0.0000                STO-SS =           0.0000     STORAGE                          
                 WEL =       5.3000E-02                   WEL =       5.0000E-04     WEL1                             
                 WEL =           0.0000                   WEL =           0.0000     WEL2                             

           TOTAL OUT =       5.3000E-02             TOTAL OUT =       5.0000E-04

            IN - OUT =       2.1200E-11              IN - OUT =       2.0000E-13

 PERCENT DISCREPANCY =           0.00     PERCENT DISCREPANCY =           0.00




         TIME SUMMARY AT END OF TIME STEP   53 IN STRESS PERIOD    1
                    SECONDS     MINUTES      HOURS       DAYS        YEARS
                    -----------------------------------------------------------
   TIME STEP LENGTH 1.72800E+05  2880.0      48.000      2.0000     5.47570E-03
 STRESS PERIOD TIME 9.15840E+06 1.52640E+05  2544.0      106.00     0.29021    
         TOTAL TIME 9.15840E+06 1.52640E+05  2544.0      106.00     0.29021    


end timestep


start timestep kper="1" kstp="54" mode="normal"

 UBDSV1 SAVING           STO-SS ON UNIT   1027 AT TIME STEP     54, STRESS PERIOD      1
 UBDSV1 SAVING     FLOW-JA-FACE ON UNIT   1027 AT TIME STEP     54, STRESS PERIOD      1

 WEL PACKAGE (WEL1) FLOW RATES   PERIOD      1   STEP       54
 -----------------------------------------------
   NUMBER   CELLID                    RATE      
 -----------------------------------------------
     1      (1,17,17)            -7.14285714E-05
     2      (1,33,17)            -7.14285714E-05
     3      (1,9,26)             -7.14285714E-05
     4      (1,17,35)            -7.14285714E-05
     5      (1,33,35)            -7.14285714E-05
     6      (1,26,26)            -7.14285714E-05
     7      (1,41,26)            -7.14285714E-05
 -----------------------------------------------




 WEL PACKAGE (WEL2) FLOW RATES   PERIOD      1   STEP       54
 -----------------------------------------------
   NUMBER   CELLID                    RATE      
 -----------------------------------------------
     1      (1,17,26)             2.50000000E-04
     2      (1,33,26)             2.50000000E-04
 -----------------------------------------------




 HEAD WILL BE SAVED ON UNIT 1028 AT END OF TIME STEP   54, STRESS PERIOD    1


  VOLUME BUDGET FOR ENTIRE MODEL AT END OF TIME STEP   54, STRESS PERIOD   1
  ---------------------------------------------------------------------------------------------------

     CUMULATIVE VOLUME      L**3       RATES FOR THIS TIME STEP      L**3/T          PACKAGE NAME    
     ------------------                 ------------------------                     ----------------

           IN:                                      IN:
           ---                                      ---
              STO-SS =           0.0000                STO-SS =           0.0000     STORAGE                          
                 WEL =           0.0000                   WEL =           0.0000     WEL1                             
                 WEL =       5.4000E-02                   WEL =       5.0000E-04     WEL2                             

            TOTAL IN =       5.4000E-02              TOTAL IN =       5.0000E-04

          OUT:                                     OUT:
          ----                                     ----
              STO-SS =           0.0000                STO-SS =           0.0000     STORAGE                          
                 WEL =       5.4000E-02                   WEL =       5.0000E-04     WEL1                             
                 WEL =           0.0000                   WEL =           0.0000     WEL2                             

           TOTAL OUT =       5.4000E-02             TOTAL OUT =       5.0000E-04

            IN - OUT =       2.1600E-11              IN - OUT =       2.0000E-13

 PERCENT DISCREPANCY =           0.00     PERCENT DISCREPANCY =           0.00




         TIME SUMMARY AT END OF TIME STEP   54 IN STRESS PERIOD    1
                    SECONDS     MINUTES      HOURS       DAYS        YEARS
                    -----------------------------------------------------------
   TIME STEP LENGTH 1.72800E+05  2880.0      48.000      2.0000     5.47570E-03
 STRESS PERIOD TIME 9.33120E+06 1.55520E+05  2592.0      108.00     0.29569    
         TOTAL TIME 9.33120E+06 1.55520E+05  2592.0      108.00     0.29569    


end timestep


start timestep kper="1" kstp="55" mode="normal"

 UBDSV1 SAVING           STO-SS ON UNIT   1027 AT TIME STEP     55, STRESS PERIOD      1
 UBDSV1 SAVING     FLOW-JA-FACE ON UNIT   1027 AT TIME STEP     55, STRESS PERIOD      1

 WEL PACKAGE (WEL1) FLOW RATES   PERIOD      1   STEP       55
 -----------------------------------------------
   NUMBER   CELLID                    RATE      
 -----------------------------------------------
     1      (1,17,17)            -7.14285714E-05
     2      (1,33,17)            -7.14285714E-05
     3      (1,9,26)             -7.14285714E-05
     4      (1,17,35)            -7.14285714E-05
     5      (1,33,35)            -7.14285714E-05
     6      (1,26,26)            -7.14285714E-05
     7      (1,41,26)            -7.14285714E-05
 -----------------------------------------------




 WEL PACKAGE (WEL2) FLOW RATES   PERIOD      1   STEP       55
 -----------------------------------------------
   NUMBER   CELLID                    RATE      
 -----------------------------------------------
     1      (1,17,26)             2.50000000E-04
     2      (1,33,26)             2.50000000E-04
 -----------------------------------------------




 HEAD WILL BE SAVED ON UNIT 1028 AT END OF TIME STEP   55, STRESS PERIOD    1


  VOLUME BUDGET FOR ENTIRE MODEL AT END OF TIME STEP   55, STRESS PERIOD   1
  ---------------------------------------------------------------------------------------------------

     CUMULATIVE VOLUME      L**3       RATES FOR THIS TIME STEP      L**3/T          PACKAGE NAME    
     ------------------                 ------------------------                     ----------------

           IN:                                      IN:
           ---                                      ---
              STO-SS =           0.0000                STO-SS =           0.0000     STORAGE                          
                 WEL =           0.0000                   WEL =           0.0000     WEL1                             
                 WEL =       5.5000E-02                   WEL =       5.0000E-04     WEL2                             

            TOTAL IN =       5.5000E-02              TOTAL IN =       5.0000E-04

          OUT:                                     OUT:
          ----                                     ----
              STO-SS =           0.0000                STO-SS =           0.0000     STORAGE                          
                 WEL =       5.5000E-02                   WEL =       5.0000E-04     WEL1                             
                 WEL =           0.0000                   WEL =           0.0000     WEL2                             

           TOTAL OUT =       5.5000E-02             TOTAL OUT =       5.0000E-04

            IN - OUT =       2.2000E-11              IN - OUT =       2.0000E-13

 PERCENT DISCREPANCY =           0.00     PERCENT DISCREPANCY =           0.00




         TIME SUMMARY AT END OF TIME STEP   55 IN STRESS PERIOD    1
                    SECONDS     MINUTES      HOURS       DAYS        YEARS
                    -----------------------------------------------------------
   TIME STEP LENGTH 1.72800E+05  2880.0      48.000      2.0000     5.47570E-03
 STRESS PERIOD TIME 9.50400E+06 1.58400E+05  2640.0      110.00     0.30116    
         TOTAL TIME 9.50400E+06 1.58400E+05  2640.0      110.00     0.30116    


end timestep


start timestep kper="1" kstp="56" mode="normal"

 UBDSV1 SAVING           STO-SS ON UNIT   1027 AT TIME STEP     56, STRESS PERIOD      1
 UBDSV1 SAVING     FLOW-JA-FACE ON UNIT   1027 AT TIME STEP     56, STRESS PERIOD      1

 WEL PACKAGE (WEL1) FLOW RATES   PERIOD      1   STEP       56
 -----------------------------------------------
   NUMBER   CELLID                    RATE      
 -----------------------------------------------
     1      (1,17,17)            -7.14285714E-05
     2      (1,33,17)            -7.14285714E-05
     3      (1,9,26)             -7.14285714E-05
     4      (1,17,35)            -7.14285714E-05
     5      (1,33,35)            -7.14285714E-05
     6      (1,26,26)            -7.14285714E-05
     7      (1,41,26)            -7.14285714E-05
 -----------------------------------------------




 WEL PACKAGE (WEL2) FLOW RATES   PERIOD      1   STEP       56
 -----------------------------------------------
   NUMBER   CELLID                    RATE      
 -----------------------------------------------
     1      (1,17,26)             2.50000000E-04
     2      (1,33,26)             2.50000000E-04
 -----------------------------------------------




 HEAD WILL BE SAVED ON UNIT 1028 AT END OF TIME STEP   56, STRESS PERIOD    1


  VOLUME BUDGET FOR ENTIRE MODEL AT END OF TIME STEP   56, STRESS PERIOD   1
  ---------------------------------------------------------------------------------------------------

     CUMULATIVE VOLUME      L**3       RATES FOR THIS TIME STEP      L**3/T          PACKAGE NAME    
     ------------------                 ------------------------                     ----------------

           IN:                                      IN:
           ---                                      ---
              STO-SS =           0.0000                STO-SS =           0.0000     STORAGE                          
                 WEL =           0.0000                   WEL =           0.0000     WEL1                             
                 WEL =       5.6000E-02                   WEL =       5.0000E-04     WEL2                             

            TOTAL IN =       5.6000E-02              TOTAL IN =       5.0000E-04

          OUT:                                     OUT:
          ----                                     ----
              STO-SS =           0.0000                STO-SS =           0.0000     STORAGE                          
                 WEL =       5.6000E-02                   WEL =       5.0000E-04     WEL1                             
                 WEL =           0.0000                   WEL =           0.0000     WEL2                             

           TOTAL OUT =       5.6000E-02             TOTAL OUT =       5.0000E-04

            IN - OUT =       2.2400E-11              IN - OUT =       2.0000E-13

 PERCENT DISCREPANCY =           0.00     PERCENT DISCREPANCY =           0.00




         TIME SUMMARY AT END OF TIME STEP   56 IN STRESS PERIOD    1
                    SECONDS     MINUTES      HOURS       DAYS        YEARS
                    -----------------------------------------------------------
   TIME STEP LENGTH 1.72800E+05  2880.0      48.000      2.0000     5.47570E-03
 STRESS PERIOD TIME 9.67680E+06 1.61280E+05  2688.0      112.00     0.30664    
         TOTAL TIME 9.67680E+06 1.61280E+05  2688.0      112.00     0.30664    


end timestep


start timestep kper="1" kstp="57" mode="normal"

 UBDSV1 SAVING           STO-SS ON UNIT   1027 AT TIME STEP     57, STRESS PERIOD      1
 UBDSV1 SAVING     FLOW-JA-FACE ON UNIT   1027 AT TIME STEP     57, STRESS PERIOD      1

 WEL PACKAGE (WEL1) FLOW RATES   PERIOD      1   STEP       57
 -----------------------------------------------
   NUMBER   CELLID                    RATE      
 -----------------------------------------------
     1      (1,17,17)            -7.14285714E-05
     2      (1,33,17)            -7.14285714E-05
     3      (1,9,26)             -7.14285714E-05
     4      (1,17,35)            -7.14285714E-05
     5      (1,33,35)            -7.14285714E-05
     6      (1,26,26)            -7.14285714E-05
     7      (1,41,26)            -7.14285714E-05
 -----------------------------------------------




 WEL PACKAGE (WEL2) FLOW RATES   PERIOD      1   STEP       57
 -----------------------------------------------
   NUMBER   CELLID                    RATE      
 -----------------------------------------------
     1      (1,17,26)             2.50000000E-04
     2      (1,33,26)             2.50000000E-04
 -----------------------------------------------




 HEAD WILL BE SAVED ON UNIT 1028 AT END OF TIME STEP   57, STRESS PERIOD    1


  VOLUME BUDGET FOR ENTIRE MODEL AT END OF TIME STEP   57, STRESS PERIOD   1
  ---------------------------------------------------------------------------------------------------

     CUMULATIVE VOLUME      L**3       RATES FOR THIS TIME STEP      L**3/T          PACKAGE NAME    
     ------------------                 ------------------------                     ----------------

           IN:                                      IN:
           ---                                      ---
              STO-SS =           0.0000                STO-SS =           0.0000     STORAGE                          
                 WEL =           0.0000                   WEL =           0.0000     WEL1                             
                 WEL =       5.7000E-02                   WEL =       5.0000E-04     WEL2                             

            TOTAL IN =       5.7000E-02              TOTAL IN =       5.0000E-04

          OUT:                                     OUT:
          ----                                     ----
              STO-SS =           0.0000                STO-SS =           0.0000     STORAGE                          
                 WEL =       5.7000E-02                   WEL =       5.0000E-04     WEL1                             
                 WEL =           0.0000                   WEL =           0.0000     WEL2                             

           TOTAL OUT =       5.7000E-02             TOTAL OUT =       5.0000E-04

            IN - OUT =       2.2800E-11              IN - OUT =       2.0000E-13

 PERCENT DISCREPANCY =           0.00     PERCENT DISCREPANCY =           0.00




         TIME SUMMARY AT END OF TIME STEP   57 IN STRESS PERIOD    1
                    SECONDS     MINUTES      HOURS       DAYS        YEARS
                    -----------------------------------------------------------
   TIME STEP LENGTH 1.72800E+05  2880.0      48.000      2.0000     5.47570E-03
 STRESS PERIOD TIME 9.84960E+06 1.64160E+05  2736.0      114.00     0.31211    
         TOTAL TIME 9.84960E+06 1.64160E+05  2736.0      114.00     0.31211    


end timestep


start timestep kper="1" kstp="58" mode="normal"

 UBDSV1 SAVING           STO-SS ON UNIT   1027 AT TIME STEP     58, STRESS PERIOD      1
 UBDSV1 SAVING     FLOW-JA-FACE ON UNIT   1027 AT TIME STEP     58, STRESS PERIOD      1

 WEL PACKAGE (WEL1) FLOW RATES   PERIOD      1   STEP       58
 -----------------------------------------------
   NUMBER   CELLID                    RATE      
 -----------------------------------------------
     1      (1,17,17)            -7.14285714E-05
     2      (1,33,17)            -7.14285714E-05
     3      (1,9,26)             -7.14285714E-05
     4      (1,17,35)            -7.14285714E-05
     5      (1,33,35)            -7.14285714E-05
     6      (1,26,26)            -7.14285714E-05
     7      (1,41,26)            -7.14285714E-05
 -----------------------------------------------




 WEL PACKAGE (WEL2) FLOW RATES   PERIOD      1   STEP       58
 -----------------------------------------------
   NUMBER   CELLID                    RATE      
 -----------------------------------------------
     1      (1,17,26)             2.50000000E-04
     2      (1,33,26)             2.50000000E-04
 -----------------------------------------------




 HEAD WILL BE SAVED ON UNIT 1028 AT END OF TIME STEP   58, STRESS PERIOD    1


  VOLUME BUDGET FOR ENTIRE MODEL AT END OF TIME STEP   58, STRESS PERIOD   1
  ---------------------------------------------------------------------------------------------------

     CUMULATIVE VOLUME      L**3       RATES FOR THIS TIME STEP      L**3/T          PACKAGE NAME    
     ------------------                 ------------------------                     ----------------

           IN:                                      IN:
           ---                                      ---
              STO-SS =           0.0000                STO-SS =           0.0000     STORAGE                          
                 WEL =           0.0000                   WEL =           0.0000     WEL1                             
                 WEL =       5.8000E-02                   WEL =       5.0000E-04     WEL2                             

            TOTAL IN =       5.8000E-02              TOTAL IN =       5.0000E-04

          OUT:                                     OUT:
          ----                                     ----
              STO-SS =           0.0000                STO-SS =           0.0000     STORAGE                          
                 WEL =       5.8000E-02                   WEL =       5.0000E-04     WEL1                             
                 WEL =           0.0000                   WEL =           0.0000     WEL2                             

           TOTAL OUT =       5.8000E-02             TOTAL OUT =       5.0000E-04

            IN - OUT =       2.3200E-11              IN - OUT =       2.0000E-13

 PERCENT DISCREPANCY =           0.00     PERCENT DISCREPANCY =           0.00




         TIME SUMMARY AT END OF TIME STEP   58 IN STRESS PERIOD    1
                    SECONDS     MINUTES      HOURS       DAYS        YEARS
                    -----------------------------------------------------------
   TIME STEP LENGTH 1.72800E+05  2880.0      48.000      2.0000     5.47570E-03
 STRESS PERIOD TIME 1.00224E+07 1.67040E+05  2784.0      116.00     0.31759    
         TOTAL TIME 1.00224E+07 1.67040E+05  2784.0      116.00     0.31759    


end timestep


start timestep kper="1" kstp="59" mode="normal"

 UBDSV1 SAVING           STO-SS ON UNIT   1027 AT TIME STEP     59, STRESS PERIOD      1
 UBDSV1 SAVING     FLOW-JA-FACE ON UNIT   1027 AT TIME STEP     59, STRESS PERIOD      1

 WEL PACKAGE (WEL1) FLOW RATES   PERIOD      1   STEP       59
 -----------------------------------------------
   NUMBER   CELLID                    RATE      
 -----------------------------------------------
     1      (1,17,17)            -7.14285714E-05
     2      (1,33,17)            -7.14285714E-05
     3      (1,9,26)             -7.14285714E-05
     4      (1,17,35)            -7.14285714E-05
     5      (1,33,35)            -7.14285714E-05
     6      (1,26,26)            -7.14285714E-05
     7      (1,41,26)            -7.14285714E-05
 -----------------------------------------------




 WEL PACKAGE (WEL2) FLOW RATES   PERIOD      1   STEP       59
 -----------------------------------------------
   NUMBER   CELLID                    RATE      
 -----------------------------------------------
     1      (1,17,26)             2.50000000E-04
     2      (1,33,26)             2.50000000E-04
 -----------------------------------------------




 HEAD WILL BE SAVED ON UNIT 1028 AT END OF TIME STEP   59, STRESS PERIOD    1


  VOLUME BUDGET FOR ENTIRE MODEL AT END OF TIME STEP   59, STRESS PERIOD   1
  ---------------------------------------------------------------------------------------------------

     CUMULATIVE VOLUME      L**3       RATES FOR THIS TIME STEP      L**3/T          PACKAGE NAME    
     ------------------                 ------------------------                     ----------------

           IN:                                      IN:
           ---                                      ---
              STO-SS =           0.0000                STO-SS =           0.0000     STORAGE                          
                 WEL =           0.0000                   WEL =           0.0000     WEL1                             
                 WEL =       5.9000E-02                   WEL =       5.0000E-04     WEL2                             

            TOTAL IN =       5.9000E-02              TOTAL IN =       5.0000E-04

          OUT:                                     OUT:
          ----                                     ----
              STO-SS =           0.0000                STO-SS =           0.0000     STORAGE                          
                 WEL =       5.9000E-02                   WEL =       5.0000E-04     WEL1                             
                 WEL =           0.0000                   WEL =           0.0000     WEL2                             

           TOTAL OUT =       5.9000E-02             TOTAL OUT =       5.0000E-04

            IN - OUT =       2.3600E-11              IN - OUT =       2.0000E-13

 PERCENT DISCREPANCY =           0.00     PERCENT DISCREPANCY =           0.00




         TIME SUMMARY AT END OF TIME STEP   59 IN STRESS PERIOD    1
                    SECONDS     MINUTES      HOURS       DAYS        YEARS
                    -----------------------------------------------------------
   TIME STEP LENGTH 1.72800E+05  2880.0      48.000      2.0000     5.47570E-03
 STRESS PERIOD TIME 1.01952E+07 1.69920E+05  2832.0      118.00     0.32307    
         TOTAL TIME 1.01952E+07 1.69920E+05  2832.0      118.00     0.32307    


end timestep


start timestep kper="1" kstp="60" mode="normal"

 UBDSV1 SAVING           STO-SS ON UNIT   1027 AT TIME STEP     60, STRESS PERIOD      1
 UBDSV1 SAVING     FLOW-JA-FACE ON UNIT   1027 AT TIME STEP     60, STRESS PERIOD      1

 WEL PACKAGE (WEL1) FLOW RATES   PERIOD      1   STEP       60
 -----------------------------------------------
   NUMBER   CELLID                    RATE      
 -----------------------------------------------
     1      (1,17,17)            -7.14285714E-05
     2      (1,33,17)            -7.14285714E-05
     3      (1,9,26)             -7.14285714E-05
     4      (1,17,35)            -7.14285714E-05
     5      (1,33,35)            -7.14285714E-05
     6      (1,26,26)            -7.14285714E-05
     7      (1,41,26)            -7.14285714E-05
 -----------------------------------------------




 WEL PACKAGE (WEL2) FLOW RATES   PERIOD      1   STEP       60
 -----------------------------------------------
   NUMBER   CELLID                    RATE      
 -----------------------------------------------
     1      (1,17,26)             2.50000000E-04
     2      (1,33,26)             2.50000000E-04
 -----------------------------------------------




 HEAD WILL BE SAVED ON UNIT 1028 AT END OF TIME STEP   60, STRESS PERIOD    1


  VOLUME BUDGET FOR ENTIRE MODEL AT END OF TIME STEP   60, STRESS PERIOD   1
  ---------------------------------------------------------------------------------------------------

     CUMULATIVE VOLUME      L**3       RATES FOR THIS TIME STEP      L**3/T          PACKAGE NAME    
     ------------------                 ------------------------                     ----------------

           IN:                                      IN:
           ---                                      ---
              STO-SS =           0.0000                STO-SS =           0.0000     STORAGE                          
                 WEL =           0.0000                   WEL =           0.0000     WEL1                             
                 WEL =       6.0000E-02                   WEL =       5.0000E-04     WEL2                             

            TOTAL IN =       6.0000E-02              TOTAL IN =       5.0000E-04

          OUT:                                     OUT:
          ----                                     ----
              STO-SS =           0.0000                STO-SS =           0.0000     STORAGE                          
                 WEL =       6.0000E-02                   WEL =       5.0000E-04     WEL1                             
                 WEL =           0.0000                   WEL =           0.0000     WEL2                             

           TOTAL OUT =       6.0000E-02             TOTAL OUT =       5.0000E-04

            IN - OUT =       2.4000E-11              IN - OUT =       2.0000E-13

 PERCENT DISCREPANCY =           0.00     PERCENT DISCREPANCY =           0.00




         TIME SUMMARY AT END OF TIME STEP   60 IN STRESS PERIOD    1
                    SECONDS     MINUTES      HOURS       DAYS        YEARS
                    -----------------------------------------------------------
   TIME STEP LENGTH 1.72800E+05  2880.0      48.000      2.0000     5.47570E-03
 STRESS PERIOD TIME 1.03680E+07 1.72800E+05  2880.0      120.00     0.32854    
         TOTAL TIME 1.03680E+07 1.72800E+05  2880.0      120.00     0.32854    


end timestep


start timestep kper="1" kstp="61" mode="normal"

 UBDSV1 SAVING           STO-SS ON UNIT   1027 AT TIME STEP     61, STRESS PERIOD      1
 UBDSV1 SAVING     FLOW-JA-FACE ON UNIT   1027 AT TIME STEP     61, STRESS PERIOD      1

 WEL PACKAGE (WEL1) FLOW RATES   PERIOD      1   STEP       61
 -----------------------------------------------
   NUMBER   CELLID                    RATE      
 -----------------------------------------------
     1      (1,17,17)            -7.14285714E-05
     2      (1,33,17)            -7.14285714E-05
     3      (1,9,26)             -7.14285714E-05
     4      (1,17,35)            -7.14285714E-05
     5      (1,33,35)            -7.14285714E-05
     6      (1,26,26)            -7.14285714E-05
     7      (1,41,26)            -7.14285714E-05
 -----------------------------------------------




 WEL PACKAGE (WEL2) FLOW RATES   PERIOD      1   STEP       61
 -----------------------------------------------
   NUMBER   CELLID                    RATE      
 -----------------------------------------------
     1      (1,17,26)             2.50000000E-04
     2      (1,33,26)             2.50000000E-04
 -----------------------------------------------




 HEAD WILL BE SAVED ON UNIT 1028 AT END OF TIME STEP   61, STRESS PERIOD    1


  VOLUME BUDGET FOR ENTIRE MODEL AT END OF TIME STEP   61, STRESS PERIOD   1
  ---------------------------------------------------------------------------------------------------

     CUMULATIVE VOLUME      L**3       RATES FOR THIS TIME STEP      L**3/T          PACKAGE NAME    
     ------------------                 ------------------------                     ----------------

           IN:                                      IN:
           ---                                      ---
              STO-SS =           0.0000                STO-SS =           0.0000     STORAGE                          
                 WEL =           0.0000                   WEL =           0.0000     WEL1                             
                 WEL =       6.1000E-02                   WEL =       5.0000E-04     WEL2                             

            TOTAL IN =       6.1000E-02              TOTAL IN =       5.0000E-04

          OUT:                                     OUT:
          ----                                     ----
              STO-SS =           0.0000                STO-SS =           0.0000     STORAGE                          
                 WEL =       6.1000E-02                   WEL =       5.0000E-04     WEL1                             
                 WEL =           0.0000                   WEL =           0.0000     WEL2                             

           TOTAL OUT =       6.1000E-02             TOTAL OUT =       5.0000E-04

            IN - OUT =       2.4400E-11              IN - OUT =       2.0000E-13

 PERCENT DISCREPANCY =           0.00     PERCENT DISCREPANCY =           0.00




         TIME SUMMARY AT END OF TIME STEP   61 IN STRESS PERIOD    1
                    SECONDS     MINUTES      HOURS       DAYS        YEARS
                    -----------------------------------------------------------
   TIME STEP LENGTH 1.72800E+05  2880.0      48.000      2.0000     5.47570E-03
 STRESS PERIOD TIME 1.05408E+07 1.75680E+05  2928.0      122.00     0.33402    
         TOTAL TIME 1.05408E+07 1.75680E+05  2928.0      122.00     0.33402    


end timestep


start timestep kper="1" kstp="62" mode="normal"

 UBDSV1 SAVING           STO-SS ON UNIT   1027 AT TIME STEP     62, STRESS PERIOD      1
 UBDSV1 SAVING     FLOW-JA-FACE ON UNIT   1027 AT TIME STEP     62, STRESS PERIOD      1

 WEL PACKAGE (WEL1) FLOW RATES   PERIOD      1   STEP       62
 -----------------------------------------------
   NUMBER   CELLID                    RATE      
 -----------------------------------------------
     1      (1,17,17)            -7.14285714E-05
     2      (1,33,17)            -7.14285714E-05
     3      (1,9,26)             -7.14285714E-05
     4      (1,17,35)            -7.14285714E-05
     5      (1,33,35)            -7.14285714E-05
     6      (1,26,26)            -7.14285714E-05
     7      (1,41,26)            -7.14285714E-05
 -----------------------------------------------




 WEL PACKAGE (WEL2) FLOW RATES   PERIOD      1   STEP       62
 -----------------------------------------------
   NUMBER   CELLID                    RATE      
 -----------------------------------------------
     1      (1,17,26)             2.50000000E-04
     2      (1,33,26)             2.50000000E-04
 -----------------------------------------------




 HEAD WILL BE SAVED ON UNIT 1028 AT END OF TIME STEP   62, STRESS PERIOD    1


  VOLUME BUDGET FOR ENTIRE MODEL AT END OF TIME STEP   62, STRESS PERIOD   1
  ---------------------------------------------------------------------------------------------------

     CUMULATIVE VOLUME      L**3       RATES FOR THIS TIME STEP      L**3/T          PACKAGE NAME    
     ------------------                 ------------------------                     ----------------

           IN:                                      IN:
           ---                                      ---
              STO-SS =           0.0000                STO-SS =           0.0000     STORAGE                          
                 WEL =           0.0000                   WEL =           0.0000     WEL1                             
                 WEL =       6.2000E-02                   WEL =       5.0000E-04     WEL2                             

            TOTAL IN =       6.2000E-02              TOTAL IN =       5.0000E-04

          OUT:                                     OUT:
          ----                                     ----
              STO-SS =           0.0000                STO-SS =           0.0000     STORAGE                          
                 WEL =       6.2000E-02                   WEL =       5.0000E-04     WEL1                             
                 WEL =           0.0000                   WEL =           0.0000     WEL2                             

           TOTAL OUT =       6.2000E-02             TOTAL OUT =       5.0000E-04

            IN - OUT =       2.4800E-11              IN - OUT =       2.0000E-13

 PERCENT DISCREPANCY =           0.00     PERCENT DISCREPANCY =           0.00




         TIME SUMMARY AT END OF TIME STEP   62 IN STRESS PERIOD    1
                    SECONDS     MINUTES      HOURS       DAYS        YEARS
                    -----------------------------------------------------------
   TIME STEP LENGTH 1.72800E+05  2880.0      48.000      2.0000     5.47570E-03
 STRESS PERIOD TIME 1.07136E+07 1.78560E+05  2976.0      124.00     0.33949    
         TOTAL TIME 1.07136E+07 1.78560E+05  2976.0      124.00     0.33949    


end timestep


start timestep kper="1" kstp="63" mode="normal"

 UBDSV1 SAVING           STO-SS ON UNIT   1027 AT TIME STEP     63, STRESS PERIOD      1
 UBDSV1 SAVING     FLOW-JA-FACE ON UNIT   1027 AT TIME STEP     63, STRESS PERIOD      1

 WEL PACKAGE (WEL1) FLOW RATES   PERIOD      1   STEP       63
 -----------------------------------------------
   NUMBER   CELLID                    RATE      
 -----------------------------------------------
     1      (1,17,17)            -7.14285714E-05
     2      (1,33,17)            -7.14285714E-05
     3      (1,9,26)             -7.14285714E-05
     4      (1,17,35)            -7.14285714E-05
     5      (1,33,35)            -7.14285714E-05
     6      (1,26,26)            -7.14285714E-05
     7      (1,41,26)            -7.14285714E-05
 -----------------------------------------------




 WEL PACKAGE (WEL2) FLOW RATES   PERIOD      1   STEP       63
 -----------------------------------------------
   NUMBER   CELLID                    RATE      
 -----------------------------------------------
     1      (1,17,26)             2.50000000E-04
     2      (1,33,26)             2.50000000E-04
 -----------------------------------------------




 HEAD WILL BE SAVED ON UNIT 1028 AT END OF TIME STEP   63, STRESS PERIOD    1


  VOLUME BUDGET FOR ENTIRE MODEL AT END OF TIME STEP   63, STRESS PERIOD   1
  ---------------------------------------------------------------------------------------------------

     CUMULATIVE VOLUME      L**3       RATES FOR THIS TIME STEP      L**3/T          PACKAGE NAME    
     ------------------                 ------------------------                     ----------------

           IN:                                      IN:
           ---                                      ---
              STO-SS =           0.0000                STO-SS =           0.0000     STORAGE                          
                 WEL =           0.0000                   WEL =           0.0000     WEL1                             
                 WEL =       6.3000E-02                   WEL =       5.0000E-04     WEL2                             

            TOTAL IN =       6.3000E-02              TOTAL IN =       5.0000E-04

          OUT:                                     OUT:
          ----                                     ----
              STO-SS =           0.0000                STO-SS =           0.0000     STORAGE                          
                 WEL =       6.3000E-02                   WEL =       5.0000E-04     WEL1                             
                 WEL =           0.0000                   WEL =           0.0000     WEL2                             

           TOTAL OUT =       6.3000E-02             TOTAL OUT =       5.0000E-04

            IN - OUT =       2.5200E-11              IN - OUT =       2.0000E-13

 PERCENT DISCREPANCY =           0.00     PERCENT DISCREPANCY =           0.00




         TIME SUMMARY AT END OF TIME STEP   63 IN STRESS PERIOD    1
                    SECONDS     MINUTES      HOURS       DAYS        YEARS
                    -----------------------------------------------------------
   TIME STEP LENGTH 1.72800E+05  2880.0      48.000      2.0000     5.47570E-03
 STRESS PERIOD TIME 1.08864E+07 1.81440E+05  3024.0      126.00     0.34497    
         TOTAL TIME 1.08864E+07 1.81440E+05  3024.0      126.00     0.34497    


end timestep


start timestep kper="1" kstp="64" mode="normal"

 UBDSV1 SAVING           STO-SS ON UNIT   1027 AT TIME STEP     64, STRESS PERIOD      1
 UBDSV1 SAVING     FLOW-JA-FACE ON UNIT   1027 AT TIME STEP     64, STRESS PERIOD      1

 WEL PACKAGE (WEL1) FLOW RATES   PERIOD      1   STEP       64
 -----------------------------------------------
   NUMBER   CELLID                    RATE      
 -----------------------------------------------
     1      (1,17,17)            -7.14285714E-05
     2      (1,33,17)            -7.14285714E-05
     3      (1,9,26)             -7.14285714E-05
     4      (1,17,35)            -7.14285714E-05
     5      (1,33,35)            -7.14285714E-05
     6      (1,26,26)            -7.14285714E-05
     7      (1,41,26)            -7.14285714E-05
 -----------------------------------------------




 WEL PACKAGE (WEL2) FLOW RATES   PERIOD      1   STEP       64
 -----------------------------------------------
   NUMBER   CELLID                    RATE      
 -----------------------------------------------
     1      (1,17,26)             2.50000000E-04
     2      (1,33,26)             2.50000000E-04
 -----------------------------------------------




 HEAD WILL BE SAVED ON UNIT 1028 AT END OF TIME STEP   64, STRESS PERIOD    1


  VOLUME BUDGET FOR ENTIRE MODEL AT END OF TIME STEP   64, STRESS PERIOD   1
  ---------------------------------------------------------------------------------------------------

     CUMULATIVE VOLUME      L**3       RATES FOR THIS TIME STEP      L**3/T          PACKAGE NAME    
     ------------------                 ------------------------                     ----------------

           IN:                                      IN:
           ---                                      ---
              STO-SS =           0.0000                STO-SS =           0.0000     STORAGE                          
                 WEL =           0.0000                   WEL =           0.0000     WEL1                             
                 WEL =       6.4000E-02                   WEL =       5.0000E-04     WEL2                             

            TOTAL IN =       6.4000E-02              TOTAL IN =       5.0000E-04

          OUT:                                     OUT:
          ----                                     ----
              STO-SS =           0.0000                STO-SS =           0.0000     STORAGE                          
                 WEL =       6.4000E-02                   WEL =       5.0000E-04     WEL1                             
                 WEL =           0.0000                   WEL =           0.0000     WEL2                             

           TOTAL OUT =       6.4000E-02             TOTAL OUT =       5.0000E-04

            IN - OUT =       2.5600E-11              IN - OUT =       2.0000E-13

 PERCENT DISCREPANCY =           0.00     PERCENT DISCREPANCY =           0.00




         TIME SUMMARY AT END OF TIME STEP   64 IN STRESS PERIOD    1
                    SECONDS     MINUTES      HOURS       DAYS        YEARS
                    -----------------------------------------------------------
   TIME STEP LENGTH 1.72800E+05  2880.0      48.000      2.0000     5.47570E-03
 STRESS PERIOD TIME 1.10592E+07 1.84320E+05  3072.0      128.00     0.35044    
         TOTAL TIME 1.10592E+07 1.84320E+05  3072.0      128.00     0.35044    


end timestep


start timestep kper="1" kstp="65" mode="normal"

 UBDSV1 SAVING           STO-SS ON UNIT   1027 AT TIME STEP     65, STRESS PERIOD      1
 UBDSV1 SAVING     FLOW-JA-FACE ON UNIT   1027 AT TIME STEP     65, STRESS PERIOD      1

 WEL PACKAGE (WEL1) FLOW RATES   PERIOD      1   STEP       65
 -----------------------------------------------
   NUMBER   CELLID                    RATE      
 -----------------------------------------------
     1      (1,17,17)            -7.14285714E-05
     2      (1,33,17)            -7.14285714E-05
     3      (1,9,26)             -7.14285714E-05
     4      (1,17,35)            -7.14285714E-05
     5      (1,33,35)            -7.14285714E-05
     6      (1,26,26)            -7.14285714E-05
     7      (1,41,26)            -7.14285714E-05
 -----------------------------------------------




 WEL PACKAGE (WEL2) FLOW RATES   PERIOD      1   STEP       65
 -----------------------------------------------
   NUMBER   CELLID                    RATE      
 -----------------------------------------------
     1      (1,17,26)             2.50000000E-04
     2      (1,33,26)             2.50000000E-04
 -----------------------------------------------




 HEAD WILL BE SAVED ON UNIT 1028 AT END OF TIME STEP   65, STRESS PERIOD    1


  VOLUME BUDGET FOR ENTIRE MODEL AT END OF TIME STEP   65, STRESS PERIOD   1
  ---------------------------------------------------------------------------------------------------

     CUMULATIVE VOLUME      L**3       RATES FOR THIS TIME STEP      L**3/T          PACKAGE NAME    
     ------------------                 ------------------------                     ----------------

           IN:                                      IN:
           ---                                      ---
              STO-SS =           0.0000                STO-SS =           0.0000     STORAGE                          
                 WEL =           0.0000                   WEL =           0.0000     WEL1                             
                 WEL =       6.5000E-02                   WEL =       5.0000E-04     WEL2                             

            TOTAL IN =       6.5000E-02              TOTAL IN =       5.0000E-04

          OUT:                                     OUT:
          ----                                     ----
              STO-SS =           0.0000                STO-SS =           0.0000     STORAGE                          
                 WEL =       6.5000E-02                   WEL =       5.0000E-04     WEL1                             
                 WEL =           0.0000                   WEL =           0.0000     WEL2                             

           TOTAL OUT =       6.5000E-02             TOTAL OUT =       5.0000E-04

            IN - OUT =       2.6000E-11              IN - OUT =       2.0000E-13

 PERCENT DISCREPANCY =           0.00     PERCENT DISCREPANCY =           0.00




         TIME SUMMARY AT END OF TIME STEP   65 IN STRESS PERIOD    1
                    SECONDS     MINUTES      HOURS       DAYS        YEARS
                    -----------------------------------------------------------
   TIME STEP LENGTH 1.72800E+05  2880.0      48.000      2.0000     5.47570E-03
 STRESS PERIOD TIME 1.12320E+07 1.87200E+05  3120.0      130.00     0.35592    
         TOTAL TIME 1.12320E+07 1.87200E+05  3120.0      130.00     0.35592    


end timestep


start timestep kper="1" kstp="66" mode="normal"

 UBDSV1 SAVING           STO-SS ON UNIT   1027 AT TIME STEP     66, STRESS PERIOD      1
 UBDSV1 SAVING     FLOW-JA-FACE ON UNIT   1027 AT TIME STEP     66, STRESS PERIOD      1

 WEL PACKAGE (WEL1) FLOW RATES   PERIOD      1   STEP       66
 -----------------------------------------------
   NUMBER   CELLID                    RATE      
 -----------------------------------------------
     1      (1,17,17)            -7.14285714E-05
     2      (1,33,17)            -7.14285714E-05
     3      (1,9,26)             -7.14285714E-05
     4      (1,17,35)            -7.14285714E-05
     5      (1,33,35)            -7.14285714E-05
     6      (1,26,26)            -7.14285714E-05
     7      (1,41,26)            -7.14285714E-05
 -----------------------------------------------




 WEL PACKAGE (WEL2) FLOW RATES   PERIOD      1   STEP       66
 -----------------------------------------------
   NUMBER   CELLID                    RATE      
 -----------------------------------------------
     1      (1,17,26)             2.50000000E-04
     2      (1,33,26)             2.50000000E-04
 -----------------------------------------------




 HEAD WILL BE SAVED ON UNIT 1028 AT END OF TIME STEP   66, STRESS PERIOD    1


  VOLUME BUDGET FOR ENTIRE MODEL AT END OF TIME STEP   66, STRESS PERIOD   1
  ---------------------------------------------------------------------------------------------------

     CUMULATIVE VOLUME      L**3       RATES FOR THIS TIME STEP      L**3/T          PACKAGE NAME    
     ------------------                 ------------------------                     ----------------

           IN:                                      IN:
           ---                                      ---
              STO-SS =           0.0000                STO-SS =           0.0000     STORAGE                          
                 WEL =           0.0000                   WEL =           0.0000     WEL1                             
                 WEL =       6.6000E-02                   WEL =       5.0000E-04     WEL2                             

            TOTAL IN =       6.6000E-02              TOTAL IN =       5.0000E-04

          OUT:                                     OUT:
          ----                                     ----
              STO-SS =           0.0000                STO-SS =           0.0000     STORAGE                          
                 WEL =       6.6000E-02                   WEL =       5.0000E-04     WEL1                             
                 WEL =           0.0000                   WEL =           0.0000     WEL2                             

           TOTAL OUT =       6.6000E-02             TOTAL OUT =       5.0000E-04

            IN - OUT =       2.6400E-11              IN - OUT =       2.0000E-13

 PERCENT DISCREPANCY =           0.00     PERCENT DISCREPANCY =           0.00




         TIME SUMMARY AT END OF TIME STEP   66 IN STRESS PERIOD    1
                    SECONDS     MINUTES      HOURS       DAYS        YEARS
                    -----------------------------------------------------------
   TIME STEP LENGTH 1.72800E+05  2880.0      48.000      2.0000     5.47570E-03
 STRESS PERIOD TIME 1.14048E+07 1.90080E+05  3168.0      132.00     0.36140    
         TOTAL TIME 1.14048E+07 1.90080E+05  3168.0      132.00     0.36140    


end timestep


start timestep kper="1" kstp="67" mode="normal"

 UBDSV1 SAVING           STO-SS ON UNIT   1027 AT TIME STEP     67, STRESS PERIOD      1
 UBDSV1 SAVING     FLOW-JA-FACE ON UNIT   1027 AT TIME STEP     67, STRESS PERIOD      1

 WEL PACKAGE (WEL1) FLOW RATES   PERIOD      1   STEP       67
 -----------------------------------------------
   NUMBER   CELLID                    RATE      
 -----------------------------------------------
     1      (1,17,17)            -7.14285714E-05
     2      (1,33,17)            -7.14285714E-05
     3      (1,9,26)             -7.14285714E-05
     4      (1,17,35)            -7.14285714E-05
     5      (1,33,35)            -7.14285714E-05
     6      (1,26,26)            -7.14285714E-05
     7      (1,41,26)            -7.14285714E-05
 -----------------------------------------------




 WEL PACKAGE (WEL2) FLOW RATES   PERIOD      1   STEP       67
 -----------------------------------------------
   NUMBER   CELLID                    RATE      
 -----------------------------------------------
     1      (1,17,26)             2.50000000E-04
     2      (1,33,26)             2.50000000E-04
 -----------------------------------------------




 HEAD WILL BE SAVED ON UNIT 1028 AT END OF TIME STEP   67, STRESS PERIOD    1


  VOLUME BUDGET FOR ENTIRE MODEL AT END OF TIME STEP   67, STRESS PERIOD   1
  ---------------------------------------------------------------------------------------------------

     CUMULATIVE VOLUME      L**3       RATES FOR THIS TIME STEP      L**3/T          PACKAGE NAME    
     ------------------                 ------------------------                     ----------------

           IN:                                      IN:
           ---                                      ---
              STO-SS =           0.0000                STO-SS =           0.0000     STORAGE                          
                 WEL =           0.0000                   WEL =           0.0000     WEL1                             
                 WEL =       6.7000E-02                   WEL =       5.0000E-04     WEL2                             

            TOTAL IN =       6.7000E-02              TOTAL IN =       5.0000E-04

          OUT:                                     OUT:
          ----                                     ----
              STO-SS =           0.0000                STO-SS =           0.0000     STORAGE                          
                 WEL =       6.7000E-02                   WEL =       5.0000E-04     WEL1                             
                 WEL =           0.0000                   WEL =           0.0000     WEL2                             

           TOTAL OUT =       6.7000E-02             TOTAL OUT =       5.0000E-04

            IN - OUT =       2.6800E-11              IN - OUT =       2.0000E-13

 PERCENT DISCREPANCY =           0.00     PERCENT DISCREPANCY =           0.00




         TIME SUMMARY AT END OF TIME STEP   67 IN STRESS PERIOD    1
                    SECONDS     MINUTES      HOURS       DAYS        YEARS
                    -----------------------------------------------------------
   TIME STEP LENGTH 1.72800E+05  2880.0      48.000      2.0000     5.47570E-03
 STRESS PERIOD TIME 1.15776E+07 1.92960E+05  3216.0      134.00     0.36687    
         TOTAL TIME 1.15776E+07 1.92960E+05  3216.0      134.00     0.36687    


end timestep


start timestep kper="1" kstp="68" mode="normal"

 UBDSV1 SAVING           STO-SS ON UNIT   1027 AT TIME STEP     68, STRESS PERIOD      1
 UBDSV1 SAVING     FLOW-JA-FACE ON UNIT   1027 AT TIME STEP     68, STRESS PERIOD      1

 WEL PACKAGE (WEL1) FLOW RATES   PERIOD      1   STEP       68
 -----------------------------------------------
   NUMBER   CELLID                    RATE      
 -----------------------------------------------
     1      (1,17,17)            -7.14285714E-05
     2      (1,33,17)            -7.14285714E-05
     3      (1,9,26)             -7.14285714E-05
     4      (1,17,35)            -7.14285714E-05
     5      (1,33,35)            -7.14285714E-05
     6      (1,26,26)            -7.14285714E-05
     7      (1,41,26)            -7.14285714E-05
 -----------------------------------------------




 WEL PACKAGE (WEL2) FLOW RATES   PERIOD      1   STEP       68
 -----------------------------------------------
   NUMBER   CELLID                    RATE      
 -----------------------------------------------
     1      (1,17,26)             2.50000000E-04
     2      (1,33,26)             2.50000000E-04
 -----------------------------------------------




 HEAD WILL BE SAVED ON UNIT 1028 AT END OF TIME STEP   68, STRESS PERIOD    1


  VOLUME BUDGET FOR ENTIRE MODEL AT END OF TIME STEP   68, STRESS PERIOD   1
  ---------------------------------------------------------------------------------------------------

     CUMULATIVE VOLUME      L**3       RATES FOR THIS TIME STEP      L**3/T          PACKAGE NAME    
     ------------------                 ------------------------                     ----------------

           IN:                                      IN:
           ---                                      ---
              STO-SS =           0.0000                STO-SS =           0.0000     STORAGE                          
                 WEL =           0.0000                   WEL =           0.0000     WEL1                             
                 WEL =       6.8000E-02                   WEL =       5.0000E-04     WEL2                             

            TOTAL IN =       6.8000E-02              TOTAL IN =       5.0000E-04

          OUT:                                     OUT:
          ----                                     ----
              STO-SS =           0.0000                STO-SS =           0.0000     STORAGE                          
                 WEL =       6.8000E-02                   WEL =       5.0000E-04     WEL1                             
                 WEL =           0.0000                   WEL =           0.0000     WEL2                             

           TOTAL OUT =       6.8000E-02             TOTAL OUT =       5.0000E-04

            IN - OUT =       2.7200E-11              IN - OUT =       2.0000E-13

 PERCENT DISCREPANCY =           0.00     PERCENT DISCREPANCY =           0.00




         TIME SUMMARY AT END OF TIME STEP   68 IN STRESS PERIOD    1
                    SECONDS     MINUTES      HOURS       DAYS        YEARS
                    -----------------------------------------------------------
   TIME STEP LENGTH 1.72800E+05  2880.0      48.000      2.0000     5.47570E-03
 STRESS PERIOD TIME 1.17504E+07 1.95840E+05  3264.0      136.00     0.37235    
         TOTAL TIME 1.17504E+07 1.95840E+05  3264.0      136.00     0.37235    


end timestep


start timestep kper="1" kstp="69" mode="normal"

 UBDSV1 SAVING           STO-SS ON UNIT   1027 AT TIME STEP     69, STRESS PERIOD      1
 UBDSV1 SAVING     FLOW-JA-FACE ON UNIT   1027 AT TIME STEP     69, STRESS PERIOD      1

 WEL PACKAGE (WEL1) FLOW RATES   PERIOD      1   STEP       69
 -----------------------------------------------
   NUMBER   CELLID                    RATE      
 -----------------------------------------------
     1      (1,17,17)            -7.14285714E-05
     2      (1,33,17)            -7.14285714E-05
     3      (1,9,26)             -7.14285714E-05
     4      (1,17,35)            -7.14285714E-05
     5      (1,33,35)            -7.14285714E-05
     6      (1,26,26)            -7.14285714E-05
     7      (1,41,26)            -7.14285714E-05
 -----------------------------------------------




 WEL PACKAGE (WEL2) FLOW RATES   PERIOD      1   STEP       69
 -----------------------------------------------
   NUMBER   CELLID                    RATE      
 -----------------------------------------------
     1      (1,17,26)             2.50000000E-04
     2      (1,33,26)             2.50000000E-04
 -----------------------------------------------




 HEAD WILL BE SAVED ON UNIT 1028 AT END OF TIME STEP   69, STRESS PERIOD    1


  VOLUME BUDGET FOR ENTIRE MODEL AT END OF TIME STEP   69, STRESS PERIOD   1
  ---------------------------------------------------------------------------------------------------

     CUMULATIVE VOLUME      L**3       RATES FOR THIS TIME STEP      L**3/T          PACKAGE NAME    
     ------------------                 ------------------------                     ----------------

           IN:                                      IN:
           ---                                      ---
              STO-SS =           0.0000                STO-SS =           0.0000     STORAGE                          
                 WEL =           0.0000                   WEL =           0.0000     WEL1                             
                 WEL =       6.9000E-02                   WEL =       5.0000E-04     WEL2                             

            TOTAL IN =       6.9000E-02              TOTAL IN =       5.0000E-04

          OUT:                                     OUT:
          ----                                     ----
              STO-SS =           0.0000                STO-SS =           0.0000     STORAGE                          
                 WEL =       6.9000E-02                   WEL =       5.0000E-04     WEL1                             
                 WEL =           0.0000                   WEL =           0.0000     WEL2                             

           TOTAL OUT =       6.9000E-02             TOTAL OUT =       5.0000E-04

            IN - OUT =       2.7600E-11              IN - OUT =       2.0000E-13

 PERCENT DISCREPANCY =           0.00     PERCENT DISCREPANCY =           0.00




         TIME SUMMARY AT END OF TIME STEP   69 IN STRESS PERIOD    1
                    SECONDS     MINUTES      HOURS       DAYS        YEARS
                    -----------------------------------------------------------
   TIME STEP LENGTH 1.72800E+05  2880.0      48.000      2.0000     5.47570E-03
 STRESS PERIOD TIME 1.19232E+07 1.98720E+05  3312.0      138.00     0.37782    
         TOTAL TIME 1.19232E+07 1.98720E+05  3312.0      138.00     0.37782    


end timestep


start timestep kper="1" kstp="70" mode="normal"

 UBDSV1 SAVING           STO-SS ON UNIT   1027 AT TIME STEP     70, STRESS PERIOD      1
 UBDSV1 SAVING     FLOW-JA-FACE ON UNIT   1027 AT TIME STEP     70, STRESS PERIOD      1

 WEL PACKAGE (WEL1) FLOW RATES   PERIOD      1   STEP       70
 -----------------------------------------------
   NUMBER   CELLID                    RATE      
 -----------------------------------------------
     1      (1,17,17)            -7.14285714E-05
     2      (1,33,17)            -7.14285714E-05
     3      (1,9,26)             -7.14285714E-05
     4      (1,17,35)            -7.14285714E-05
     5      (1,33,35)            -7.14285714E-05
     6      (1,26,26)            -7.14285714E-05
     7      (1,41,26)            -7.14285714E-05
 -----------------------------------------------




 WEL PACKAGE (WEL2) FLOW RATES   PERIOD      1   STEP       70
 -----------------------------------------------
   NUMBER   CELLID                    RATE      
 -----------------------------------------------
     1      (1,17,26)             2.50000000E-04
     2      (1,33,26)             2.50000000E-04
 -----------------------------------------------




 HEAD WILL BE SAVED ON UNIT 1028 AT END OF TIME STEP   70, STRESS PERIOD    1


  VOLUME BUDGET FOR ENTIRE MODEL AT END OF TIME STEP   70, STRESS PERIOD   1
  ---------------------------------------------------------------------------------------------------

     CUMULATIVE VOLUME      L**3       RATES FOR THIS TIME STEP      L**3/T          PACKAGE NAME    
     ------------------                 ------------------------                     ----------------

           IN:                                      IN:
           ---                                      ---
              STO-SS =           0.0000                STO-SS =           0.0000     STORAGE                          
                 WEL =           0.0000                   WEL =           0.0000     WEL1                             
                 WEL =       7.0000E-02                   WEL =       5.0000E-04     WEL2                             

            TOTAL IN =       7.0000E-02              TOTAL IN =       5.0000E-04

          OUT:                                     OUT:
          ----                                     ----
              STO-SS =           0.0000                STO-SS =           0.0000     STORAGE                          
                 WEL =       7.0000E-02                   WEL =       5.0000E-04     WEL1                             
                 WEL =           0.0000                   WEL =           0.0000     WEL2                             

           TOTAL OUT =       7.0000E-02             TOTAL OUT =       5.0000E-04

            IN - OUT =       2.8000E-11              IN - OUT =       2.0000E-13

 PERCENT DISCREPANCY =           0.00     PERCENT DISCREPANCY =           0.00




         TIME SUMMARY AT END OF TIME STEP   70 IN STRESS PERIOD    1
                    SECONDS     MINUTES      HOURS       DAYS        YEARS
                    -----------------------------------------------------------
   TIME STEP LENGTH 1.72800E+05  2880.0      48.000      2.0000     5.47570E-03
 STRESS PERIOD TIME 1.20960E+07 2.01600E+05  3360.0      140.00     0.38330    
         TOTAL TIME 1.20960E+07 2.01600E+05  3360.0      140.00     0.38330    


end timestep


start timestep kper="1" kstp="71" mode="normal"

 UBDSV1 SAVING           STO-SS ON UNIT   1027 AT TIME STEP     71, STRESS PERIOD      1
 UBDSV1 SAVING     FLOW-JA-FACE ON UNIT   1027 AT TIME STEP     71, STRESS PERIOD      1

 WEL PACKAGE (WEL1) FLOW RATES   PERIOD      1   STEP       71
 -----------------------------------------------
   NUMBER   CELLID                    RATE      
 -----------------------------------------------
     1      (1,17,17)            -7.14285714E-05
     2      (1,33,17)            -7.14285714E-05
     3      (1,9,26)             -7.14285714E-05
     4      (1,17,35)            -7.14285714E-05
     5      (1,33,35)            -7.14285714E-05
     6      (1,26,26)            -7.14285714E-05
     7      (1,41,26)            -7.14285714E-05
 -----------------------------------------------




 WEL PACKAGE (WEL2) FLOW RATES   PERIOD      1   STEP       71
 -----------------------------------------------
   NUMBER   CELLID                    RATE      
 -----------------------------------------------
     1      (1,17,26)             2.50000000E-04
     2      (1,33,26)             2.50000000E-04
 -----------------------------------------------




 HEAD WILL BE SAVED ON UNIT 1028 AT END OF TIME STEP   71, STRESS PERIOD    1


  VOLUME BUDGET FOR ENTIRE MODEL AT END OF TIME STEP   71, STRESS PERIOD   1
  ---------------------------------------------------------------------------------------------------

     CUMULATIVE VOLUME      L**3       RATES FOR THIS TIME STEP      L**3/T          PACKAGE NAME    
     ------------------                 ------------------------                     ----------------

           IN:                                      IN:
           ---                                      ---
              STO-SS =           0.0000                STO-SS =           0.0000     STORAGE                          
                 WEL =           0.0000                   WEL =           0.0000     WEL1                             
                 WEL =       7.1000E-02                   WEL =       5.0000E-04     WEL2                             

            TOTAL IN =       7.1000E-02              TOTAL IN =       5.0000E-04

          OUT:                                     OUT:
          ----                                     ----
              STO-SS =           0.0000                STO-SS =           0.0000     STORAGE                          
                 WEL =       7.1000E-02                   WEL =       5.0000E-04     WEL1                             
                 WEL =           0.0000                   WEL =           0.0000     WEL2                             

           TOTAL OUT =       7.1000E-02             TOTAL OUT =       5.0000E-04

            IN - OUT =       2.8400E-11              IN - OUT =       2.0000E-13

 PERCENT DISCREPANCY =           0.00     PERCENT DISCREPANCY =           0.00




         TIME SUMMARY AT END OF TIME STEP   71 IN STRESS PERIOD    1
                    SECONDS     MINUTES      HOURS       DAYS        YEARS
                    -----------------------------------------------------------
   TIME STEP LENGTH 1.72800E+05  2880.0      48.000      2.0000     5.47570E-03
 STRESS PERIOD TIME 1.22688E+07 2.04480E+05  3408.0      142.00     0.38877    
         TOTAL TIME 1.22688E+07 2.04480E+05  3408.0      142.00     0.38877    


end timestep


start timestep kper="1" kstp="72" mode="normal"

 UBDSV1 SAVING           STO-SS ON UNIT   1027 AT TIME STEP     72, STRESS PERIOD      1
 UBDSV1 SAVING     FLOW-JA-FACE ON UNIT   1027 AT TIME STEP     72, STRESS PERIOD      1

 WEL PACKAGE (WEL1) FLOW RATES   PERIOD      1   STEP       72
 -----------------------------------------------
   NUMBER   CELLID                    RATE      
 -----------------------------------------------
     1      (1,17,17)            -7.14285714E-05
     2      (1,33,17)            -7.14285714E-05
     3      (1,9,26)             -7.14285714E-05
     4      (1,17,35)            -7.14285714E-05
     5      (1,33,35)            -7.14285714E-05
     6      (1,26,26)            -7.14285714E-05
     7      (1,41,26)            -7.14285714E-05
 -----------------------------------------------




 WEL PACKAGE (WEL2) FLOW RATES   PERIOD      1   STEP       72
 -----------------------------------------------
   NUMBER   CELLID                    RATE      
 -----------------------------------------------
     1      (1,17,26)             2.50000000E-04
     2      (1,33,26)             2.50000000E-04
 -----------------------------------------------




 HEAD WILL BE SAVED ON UNIT 1028 AT END OF TIME STEP   72, STRESS PERIOD    1


  VOLUME BUDGET FOR ENTIRE MODEL AT END OF TIME STEP   72, STRESS PERIOD   1
  ---------------------------------------------------------------------------------------------------

     CUMULATIVE VOLUME      L**3       RATES FOR THIS TIME STEP      L**3/T          PACKAGE NAME    
     ------------------                 ------------------------                     ----------------

           IN:                                      IN:
           ---                                      ---
              STO-SS =           0.0000                STO-SS =           0.0000     STORAGE                          
                 WEL =           0.0000                   WEL =           0.0000     WEL1                             
                 WEL =       7.2000E-02                   WEL =       5.0000E-04     WEL2                             

            TOTAL IN =       7.2000E-02              TOTAL IN =       5.0000E-04

          OUT:                                     OUT:
          ----                                     ----
              STO-SS =           0.0000                STO-SS =           0.0000     STORAGE                          
                 WEL =       7.2000E-02                   WEL =       5.0000E-04     WEL1                             
                 WEL =           0.0000                   WEL =           0.0000     WEL2                             

           TOTAL OUT =       7.2000E-02             TOTAL OUT =       5.0000E-04

            IN - OUT =       2.8800E-11              IN - OUT =       2.0000E-13

 PERCENT DISCREPANCY =           0.00     PERCENT DISCREPANCY =           0.00




         TIME SUMMARY AT END OF TIME STEP   72 IN STRESS PERIOD    1
                    SECONDS     MINUTES      HOURS       DAYS        YEARS
                    -----------------------------------------------------------
   TIME STEP LENGTH 1.72800E+05  2880.0      48.000      2.0000     5.47570E-03
 STRESS PERIOD TIME 1.24416E+07 2.07360E+05  3456.0      144.00     0.39425    
         TOTAL TIME 1.24416E+07 2.07360E+05  3456.0      144.00     0.39425    


end timestep


start timestep kper="1" kstp="73" mode="normal"

 UBDSV1 SAVING           STO-SS ON UNIT   1027 AT TIME STEP     73, STRESS PERIOD      1
 UBDSV1 SAVING     FLOW-JA-FACE ON UNIT   1027 AT TIME STEP     73, STRESS PERIOD      1

 WEL PACKAGE (WEL1) FLOW RATES   PERIOD      1   STEP       73
 -----------------------------------------------
   NUMBER   CELLID                    RATE      
 -----------------------------------------------
     1      (1,17,17)            -7.14285714E-05
     2      (1,33,17)            -7.14285714E-05
     3      (1,9,26)             -7.14285714E-05
     4      (1,17,35)            -7.14285714E-05
     5      (1,33,35)            -7.14285714E-05
     6      (1,26,26)            -7.14285714E-05
     7      (1,41,26)            -7.14285714E-05
 -----------------------------------------------




 WEL PACKAGE (WEL2) FLOW RATES   PERIOD      1   STEP       73
 -----------------------------------------------
   NUMBER   CELLID                    RATE      
 -----------------------------------------------
     1      (1,17,26)             2.50000000E-04
     2      (1,33,26)             2.50000000E-04
 -----------------------------------------------




 HEAD WILL BE SAVED ON UNIT 1028 AT END OF TIME STEP   73, STRESS PERIOD    1


  VOLUME BUDGET FOR ENTIRE MODEL AT END OF TIME STEP   73, STRESS PERIOD   1
  ---------------------------------------------------------------------------------------------------

     CUMULATIVE VOLUME      L**3       RATES FOR THIS TIME STEP      L**3/T          PACKAGE NAME    
     ------------------                 ------------------------                     ----------------

           IN:                                      IN:
           ---                                      ---
              STO-SS =           0.0000                STO-SS =           0.0000     STORAGE                          
                 WEL =           0.0000                   WEL =           0.0000     WEL1                             
                 WEL =       7.3000E-02                   WEL =       5.0000E-04     WEL2                             

            TOTAL IN =       7.3000E-02              TOTAL IN =       5.0000E-04

          OUT:                                     OUT:
          ----                                     ----
              STO-SS =           0.0000                STO-SS =           0.0000     STORAGE                          
                 WEL =       7.3000E-02                   WEL =       5.0000E-04     WEL1                             
                 WEL =           0.0000                   WEL =           0.0000     WEL2                             

           TOTAL OUT =       7.3000E-02             TOTAL OUT =       5.0000E-04

            IN - OUT =       2.9200E-11              IN - OUT =       2.0000E-13

 PERCENT DISCREPANCY =           0.00     PERCENT DISCREPANCY =           0.00




         TIME SUMMARY AT END OF TIME STEP   73 IN STRESS PERIOD    1
                    SECONDS     MINUTES      HOURS       DAYS        YEARS
                    -----------------------------------------------------------
   TIME STEP LENGTH 1.72800E+05  2880.0      48.000      2.0000     5.47570E-03
 STRESS PERIOD TIME 1.26144E+07 2.10240E+05  3504.0      146.00     0.39973    
         TOTAL TIME 1.26144E+07 2.10240E+05  3504.0      146.00     0.39973    


end timestep


start timestep kper="1" kstp="74" mode="normal"

 UBDSV1 SAVING           STO-SS ON UNIT   1027 AT TIME STEP     74, STRESS PERIOD      1
 UBDSV1 SAVING     FLOW-JA-FACE ON UNIT   1027 AT TIME STEP     74, STRESS PERIOD      1

 WEL PACKAGE (WEL1) FLOW RATES   PERIOD      1   STEP       74
 -----------------------------------------------
   NUMBER   CELLID                    RATE      
 -----------------------------------------------
     1      (1,17,17)            -7.14285714E-05
     2      (1,33,17)            -7.14285714E-05
     3      (1,9,26)             -7.14285714E-05
     4      (1,17,35)            -7.14285714E-05
     5      (1,33,35)            -7.14285714E-05
     6      (1,26,26)            -7.14285714E-05
     7      (1,41,26)            -7.14285714E-05
 -----------------------------------------------




 WEL PACKAGE (WEL2) FLOW RATES   PERIOD      1   STEP       74
 -----------------------------------------------
   NUMBER   CELLID                    RATE      
 -----------------------------------------------
     1      (1,17,26)             2.50000000E-04
     2      (1,33,26)             2.50000000E-04
 -----------------------------------------------




 HEAD WILL BE SAVED ON UNIT 1028 AT END OF TIME STEP   74, STRESS PERIOD    1


  VOLUME BUDGET FOR ENTIRE MODEL AT END OF TIME STEP   74, STRESS PERIOD   1
  ---------------------------------------------------------------------------------------------------

     CUMULATIVE VOLUME      L**3       RATES FOR THIS TIME STEP      L**3/T          PACKAGE NAME    
     ------------------                 ------------------------                     ----------------

           IN:                                      IN:
           ---                                      ---
              STO-SS =           0.0000                STO-SS =           0.0000     STORAGE                          
                 WEL =           0.0000                   WEL =           0.0000     WEL1                             
                 WEL =       7.4000E-02                   WEL =       5.0000E-04     WEL2                             

            TOTAL IN =       7.4000E-02              TOTAL IN =       5.0000E-04

          OUT:                                     OUT:
          ----                                     ----
              STO-SS =           0.0000                STO-SS =           0.0000     STORAGE                          
                 WEL =       7.4000E-02                   WEL =       5.0000E-04     WEL1                             
                 WEL =           0.0000                   WEL =           0.0000     WEL2                             

           TOTAL OUT =       7.4000E-02             TOTAL OUT =       5.0000E-04

            IN - OUT =       2.9600E-11              IN - OUT =       2.0000E-13

 PERCENT DISCREPANCY =           0.00     PERCENT DISCREPANCY =           0.00




         TIME SUMMARY AT END OF TIME STEP   74 IN STRESS PERIOD    1
                    SECONDS     MINUTES      HOURS       DAYS        YEARS
                    -----------------------------------------------------------
   TIME STEP LENGTH 1.72800E+05  2880.0      48.000      2.0000     5.47570E-03
 STRESS PERIOD TIME 1.27872E+07 2.13120E+05  3552.0      148.00     0.40520    
         TOTAL TIME 1.27872E+07 2.13120E+05  3552.0      148.00     0.40520    


end timestep


start timestep kper="1" kstp="75" mode="normal"

 UBDSV1 SAVING           STO-SS ON UNIT   1027 AT TIME STEP     75, STRESS PERIOD      1
 UBDSV1 SAVING     FLOW-JA-FACE ON UNIT   1027 AT TIME STEP     75, STRESS PERIOD      1

 WEL PACKAGE (WEL1) FLOW RATES   PERIOD      1   STEP       75
 -----------------------------------------------
   NUMBER   CELLID                    RATE      
 -----------------------------------------------
     1      (1,17,17)            -7.14285714E-05
     2      (1,33,17)            -7.14285714E-05
     3      (1,9,26)             -7.14285714E-05
     4      (1,17,35)            -7.14285714E-05
     5      (1,33,35)            -7.14285714E-05
     6      (1,26,26)            -7.14285714E-05
     7      (1,41,26)            -7.14285714E-05
 -----------------------------------------------




 WEL PACKAGE (WEL2) FLOW RATES   PERIOD      1   STEP       75
 -----------------------------------------------
   NUMBER   CELLID                    RATE      
 -----------------------------------------------
     1      (1,17,26)             2.50000000E-04
     2      (1,33,26)             2.50000000E-04
 -----------------------------------------------




 HEAD WILL BE SAVED ON UNIT 1028 AT END OF TIME STEP   75, STRESS PERIOD    1


  VOLUME BUDGET FOR ENTIRE MODEL AT END OF TIME STEP   75, STRESS PERIOD   1
  ---------------------------------------------------------------------------------------------------

     CUMULATIVE VOLUME      L**3       RATES FOR THIS TIME STEP      L**3/T          PACKAGE NAME    
     ------------------                 ------------------------                     ----------------

           IN:                                      IN:
           ---                                      ---
              STO-SS =           0.0000                STO-SS =           0.0000     STORAGE                          
                 WEL =           0.0000                   WEL =           0.0000     WEL1                             
                 WEL =       7.5000E-02                   WEL =       5.0000E-04     WEL2                             

            TOTAL IN =       7.5000E-02              TOTAL IN =       5.0000E-04

          OUT:                                     OUT:
          ----                                     ----
              STO-SS =           0.0000                STO-SS =           0.0000     STORAGE                          
                 WEL =       7.5000E-02                   WEL =       5.0000E-04     WEL1                             
                 WEL =           0.0000                   WEL =           0.0000     WEL2                             

           TOTAL OUT =       7.5000E-02             TOTAL OUT =       5.0000E-04

            IN - OUT =       3.0000E-11              IN - OUT =       2.0000E-13

 PERCENT DISCREPANCY =           0.00     PERCENT DISCREPANCY =           0.00




         TIME SUMMARY AT END OF TIME STEP   75 IN STRESS PERIOD    1
                    SECONDS     MINUTES      HOURS       DAYS        YEARS
                    -----------------------------------------------------------
   TIME STEP LENGTH 1.72800E+05  2880.0      48.000      2.0000     5.47570E-03
 STRESS PERIOD TIME 1.29600E+07 2.16000E+05  3600.0      150.00     0.41068    
         TOTAL TIME 1.29600E+07 2.16000E+05  3600.0      150.00     0.41068    


end timestep


start timestep kper="1" kstp="76" mode="normal"

 UBDSV1 SAVING           STO-SS ON UNIT   1027 AT TIME STEP     76, STRESS PERIOD      1
 UBDSV1 SAVING     FLOW-JA-FACE ON UNIT   1027 AT TIME STEP     76, STRESS PERIOD      1

 WEL PACKAGE (WEL1) FLOW RATES   PERIOD      1   STEP       76
 -----------------------------------------------
   NUMBER   CELLID                    RATE      
 -----------------------------------------------
     1      (1,17,17)            -7.14285714E-05
     2      (1,33,17)            -7.14285714E-05
     3      (1,9,26)             -7.14285714E-05
     4      (1,17,35)            -7.14285714E-05
     5      (1,33,35)            -7.14285714E-05
     6      (1,26,26)            -7.14285714E-05
     7      (1,41,26)            -7.14285714E-05
 -----------------------------------------------




 WEL PACKAGE (WEL2) FLOW RATES   PERIOD      1   STEP       76
 -----------------------------------------------
   NUMBER   CELLID                    RATE      
 -----------------------------------------------
     1      (1,17,26)             2.50000000E-04
     2      (1,33,26)             2.50000000E-04
 -----------------------------------------------




 HEAD WILL BE SAVED ON UNIT 1028 AT END OF TIME STEP   76, STRESS PERIOD    1


  VOLUME BUDGET FOR ENTIRE MODEL AT END OF TIME STEP   76, STRESS PERIOD   1
  ---------------------------------------------------------------------------------------------------

     CUMULATIVE VOLUME      L**3       RATES FOR THIS TIME STEP      L**3/T          PACKAGE NAME    
     ------------------                 ------------------------                     ----------------

           IN:                                      IN:
           ---                                      ---
              STO-SS =           0.0000                STO-SS =           0.0000     STORAGE                          
                 WEL =           0.0000                   WEL =           0.0000     WEL1                             
                 WEL =       7.6000E-02                   WEL =       5.0000E-04     WEL2                             

            TOTAL IN =       7.6000E-02              TOTAL IN =       5.0000E-04

          OUT:                                     OUT:
          ----                                     ----
              STO-SS =           0.0000                STO-SS =           0.0000     STORAGE                          
                 WEL =       7.6000E-02                   WEL =       5.0000E-04     WEL1                             
                 WEL =           0.0000                   WEL =           0.0000     WEL2                             

           TOTAL OUT =       7.6000E-02             TOTAL OUT =       5.0000E-04

            IN - OUT =       3.0400E-11              IN - OUT =       2.0000E-13

 PERCENT DISCREPANCY =           0.00     PERCENT DISCREPANCY =           0.00




         TIME SUMMARY AT END OF TIME STEP   76 IN STRESS PERIOD    1
                    SECONDS     MINUTES      HOURS       DAYS        YEARS
                    -----------------------------------------------------------
   TIME STEP LENGTH 1.72800E+05  2880.0      48.000      2.0000     5.47570E-03
 STRESS PERIOD TIME 1.31328E+07 2.18880E+05  3648.0      152.00     0.41615    
         TOTAL TIME 1.31328E+07 2.18880E+05  3648.0      152.00     0.41615    


end timestep


start timestep kper="1" kstp="77" mode="normal"

 UBDSV1 SAVING           STO-SS ON UNIT   1027 AT TIME STEP     77, STRESS PERIOD      1
 UBDSV1 SAVING     FLOW-JA-FACE ON UNIT   1027 AT TIME STEP     77, STRESS PERIOD      1

 WEL PACKAGE (WEL1) FLOW RATES   PERIOD      1   STEP       77
 -----------------------------------------------
   NUMBER   CELLID                    RATE      
 -----------------------------------------------
     1      (1,17,17)            -7.14285714E-05
     2      (1,33,17)            -7.14285714E-05
     3      (1,9,26)             -7.14285714E-05
     4      (1,17,35)            -7.14285714E-05
     5      (1,33,35)            -7.14285714E-05
     6      (1,26,26)            -7.14285714E-05
     7      (1,41,26)            -7.14285714E-05
 -----------------------------------------------




 WEL PACKAGE (WEL2) FLOW RATES   PERIOD      1   STEP       77
 -----------------------------------------------
   NUMBER   CELLID                    RATE      
 -----------------------------------------------
     1      (1,17,26)             2.50000000E-04
     2      (1,33,26)             2.50000000E-04
 -----------------------------------------------




 HEAD WILL BE SAVED ON UNIT 1028 AT END OF TIME STEP   77, STRESS PERIOD    1


  VOLUME BUDGET FOR ENTIRE MODEL AT END OF TIME STEP   77, STRESS PERIOD   1
  ---------------------------------------------------------------------------------------------------

     CUMULATIVE VOLUME      L**3       RATES FOR THIS TIME STEP      L**3/T          PACKAGE NAME    
     ------------------                 ------------------------                     ----------------

           IN:                                      IN:
           ---                                      ---
              STO-SS =           0.0000                STO-SS =           0.0000     STORAGE                          
                 WEL =           0.0000                   WEL =           0.0000     WEL1                             
                 WEL =       7.7000E-02                   WEL =       5.0000E-04     WEL2                             

            TOTAL IN =       7.7000E-02              TOTAL IN =       5.0000E-04

          OUT:                                     OUT:
          ----                                     ----
              STO-SS =           0.0000                STO-SS =           0.0000     STORAGE                          
                 WEL =       7.7000E-02                   WEL =       5.0000E-04     WEL1                             
                 WEL =           0.0000                   WEL =           0.0000     WEL2                             

           TOTAL OUT =       7.7000E-02             TOTAL OUT =       5.0000E-04

            IN - OUT =       3.0800E-11              IN - OUT =       2.0000E-13

 PERCENT DISCREPANCY =           0.00     PERCENT DISCREPANCY =           0.00




         TIME SUMMARY AT END OF TIME STEP   77 IN STRESS PERIOD    1
                    SECONDS     MINUTES      HOURS       DAYS        YEARS
                    -----------------------------------------------------------
   TIME STEP LENGTH 1.72800E+05  2880.0      48.000      2.0000     5.47570E-03
 STRESS PERIOD TIME 1.33056E+07 2.21760E+05  3696.0      154.00     0.42163    
         TOTAL TIME 1.33056E+07 2.21760E+05  3696.0      154.00     0.42163    


end timestep


start timestep kper="1" kstp="78" mode="normal"

 UBDSV1 SAVING           STO-SS ON UNIT   1027 AT TIME STEP     78, STRESS PERIOD      1
 UBDSV1 SAVING     FLOW-JA-FACE ON UNIT   1027 AT TIME STEP     78, STRESS PERIOD      1

 WEL PACKAGE (WEL1) FLOW RATES   PERIOD      1   STEP       78
 -----------------------------------------------
   NUMBER   CELLID                    RATE      
 -----------------------------------------------
     1      (1,17,17)            -7.14285714E-05
     2      (1,33,17)            -7.14285714E-05
     3      (1,9,26)             -7.14285714E-05
     4      (1,17,35)            -7.14285714E-05
     5      (1,33,35)            -7.14285714E-05
     6      (1,26,26)            -7.14285714E-05
     7      (1,41,26)            -7.14285714E-05
 -----------------------------------------------




 WEL PACKAGE (WEL2) FLOW RATES   PERIOD      1   STEP       78
 -----------------------------------------------
   NUMBER   CELLID                    RATE      
 -----------------------------------------------
     1      (1,17,26)             2.50000000E-04
     2      (1,33,26)             2.50000000E-04
 -----------------------------------------------




 HEAD WILL BE SAVED ON UNIT 1028 AT END OF TIME STEP   78, STRESS PERIOD    1


  VOLUME BUDGET FOR ENTIRE MODEL AT END OF TIME STEP   78, STRESS PERIOD   1
  ---------------------------------------------------------------------------------------------------

     CUMULATIVE VOLUME      L**3       RATES FOR THIS TIME STEP      L**3/T          PACKAGE NAME    
     ------------------                 ------------------------                     ----------------

           IN:                                      IN:
           ---                                      ---
              STO-SS =           0.0000                STO-SS =           0.0000     STORAGE                          
                 WEL =           0.0000                   WEL =           0.0000     WEL1                             
                 WEL =       7.8000E-02                   WEL =       5.0000E-04     WEL2                             

            TOTAL IN =       7.8000E-02              TOTAL IN =       5.0000E-04

          OUT:                                     OUT:
          ----                                     ----
              STO-SS =           0.0000                STO-SS =           0.0000     STORAGE                          
                 WEL =       7.8000E-02                   WEL =       5.0000E-04     WEL1                             
                 WEL =           0.0000                   WEL =           0.0000     WEL2                             

           TOTAL OUT =       7.8000E-02             TOTAL OUT =       5.0000E-04

            IN - OUT =       3.1200E-11              IN - OUT =       2.0000E-13

 PERCENT DISCREPANCY =           0.00     PERCENT DISCREPANCY =           0.00




         TIME SUMMARY AT END OF TIME STEP   78 IN STRESS PERIOD    1
                    SECONDS     MINUTES      HOURS       DAYS        YEARS
                    -----------------------------------------------------------
   TIME STEP LENGTH 1.72800E+05  2880.0      48.000      2.0000     5.47570E-03
 STRESS PERIOD TIME 1.34784E+07 2.24640E+05  3744.0      156.00     0.42710    
         TOTAL TIME 1.34784E+07 2.24640E+05  3744.0      156.00     0.42710    


end timestep


start timestep kper="1" kstp="79" mode="normal"

 UBDSV1 SAVING           STO-SS ON UNIT   1027 AT TIME STEP     79, STRESS PERIOD      1
 UBDSV1 SAVING     FLOW-JA-FACE ON UNIT   1027 AT TIME STEP     79, STRESS PERIOD      1

 WEL PACKAGE (WEL1) FLOW RATES   PERIOD      1   STEP       79
 -----------------------------------------------
   NUMBER   CELLID                    RATE      
 -----------------------------------------------
     1      (1,17,17)            -7.14285714E-05
     2      (1,33,17)            -7.14285714E-05
     3      (1,9,26)             -7.14285714E-05
     4      (1,17,35)            -7.14285714E-05
     5      (1,33,35)            -7.14285714E-05
     6      (1,26,26)            -7.14285714E-05
     7      (1,41,26)            -7.14285714E-05
 -----------------------------------------------




 WEL PACKAGE (WEL2) FLOW RATES   PERIOD      1   STEP       79
 -----------------------------------------------
   NUMBER   CELLID                    RATE      
 -----------------------------------------------
     1      (1,17,26)             2.50000000E-04
     2      (1,33,26)             2.50000000E-04
 -----------------------------------------------




 HEAD WILL BE SAVED ON UNIT 1028 AT END OF TIME STEP   79, STRESS PERIOD    1


  VOLUME BUDGET FOR ENTIRE MODEL AT END OF TIME STEP   79, STRESS PERIOD   1
  ---------------------------------------------------------------------------------------------------

     CUMULATIVE VOLUME      L**3       RATES FOR THIS TIME STEP      L**3/T          PACKAGE NAME    
     ------------------                 ------------------------                     ----------------

           IN:                                      IN:
           ---                                      ---
              STO-SS =           0.0000                STO-SS =           0.0000     STORAGE                          
                 WEL =           0.0000                   WEL =           0.0000     WEL1                             
                 WEL =       7.9000E-02                   WEL =       5.0000E-04     WEL2                             

            TOTAL IN =       7.9000E-02              TOTAL IN =       5.0000E-04

          OUT:                                     OUT:
          ----                                     ----
              STO-SS =           0.0000                STO-SS =           0.0000     STORAGE                          
                 WEL =       7.9000E-02                   WEL =       5.0000E-04     WEL1                             
                 WEL =           0.0000                   WEL =           0.0000     WEL2                             

           TOTAL OUT =       7.9000E-02             TOTAL OUT =       5.0000E-04

            IN - OUT =       3.1600E-11              IN - OUT =       2.0000E-13

 PERCENT DISCREPANCY =           0.00     PERCENT DISCREPANCY =           0.00




         TIME SUMMARY AT END OF TIME STEP   79 IN STRESS PERIOD    1
                    SECONDS     MINUTES      HOURS       DAYS        YEARS
                    -----------------------------------------------------------
   TIME STEP LENGTH 1.72800E+05  2880.0      48.000      2.0000     5.47570E-03
 STRESS PERIOD TIME 1.36512E+07 2.27520E+05  3792.0      158.00     0.43258    
         TOTAL TIME 1.36512E+07 2.27520E+05  3792.0      158.00     0.43258    


end timestep


start timestep kper="1" kstp="80" mode="normal"

 UBDSV1 SAVING           STO-SS ON UNIT   1027 AT TIME STEP     80, STRESS PERIOD      1
 UBDSV1 SAVING     FLOW-JA-FACE ON UNIT   1027 AT TIME STEP     80, STRESS PERIOD      1

 WEL PACKAGE (WEL1) FLOW RATES   PERIOD      1   STEP       80
 -----------------------------------------------
   NUMBER   CELLID                    RATE      
 -----------------------------------------------
     1      (1,17,17)            -7.14285714E-05
     2      (1,33,17)            -7.14285714E-05
     3      (1,9,26)             -7.14285714E-05
     4      (1,17,35)            -7.14285714E-05
     5      (1,33,35)            -7.14285714E-05
     6      (1,26,26)            -7.14285714E-05
     7      (1,41,26)            -7.14285714E-05
 -----------------------------------------------




 WEL PACKAGE (WEL2) FLOW RATES   PERIOD      1   STEP       80
 -----------------------------------------------
   NUMBER   CELLID                    RATE      
 -----------------------------------------------
     1      (1,17,26)             2.50000000E-04
     2      (1,33,26)             2.50000000E-04
 -----------------------------------------------




 HEAD WILL BE SAVED ON UNIT 1028 AT END OF TIME STEP   80, STRESS PERIOD    1


  VOLUME BUDGET FOR ENTIRE MODEL AT END OF TIME STEP   80, STRESS PERIOD   1
  ---------------------------------------------------------------------------------------------------

     CUMULATIVE VOLUME      L**3       RATES FOR THIS TIME STEP      L**3/T          PACKAGE NAME    
     ------------------                 ------------------------                     ----------------

           IN:                                      IN:
           ---                                      ---
              STO-SS =           0.0000                STO-SS =           0.0000     STORAGE                          
                 WEL =           0.0000                   WEL =           0.0000     WEL1                             
                 WEL =       8.0000E-02                   WEL =       5.0000E-04     WEL2                             

            TOTAL IN =       8.0000E-02              TOTAL IN =       5.0000E-04

          OUT:                                     OUT:
          ----                                     ----
              STO-SS =           0.0000                STO-SS =           0.0000     STORAGE                          
                 WEL =       8.0000E-02                   WEL =       5.0000E-04     WEL1                             
                 WEL =           0.0000                   WEL =           0.0000     WEL2                             

           TOTAL OUT =       8.0000E-02             TOTAL OUT =       5.0000E-04

            IN - OUT =       3.2000E-11              IN - OUT =       2.0000E-13

 PERCENT DISCREPANCY =           0.00     PERCENT DISCREPANCY =           0.00




         TIME SUMMARY AT END OF TIME STEP   80 IN STRESS PERIOD    1
                    SECONDS     MINUTES      HOURS       DAYS        YEARS
                    -----------------------------------------------------------
   TIME STEP LENGTH 1.72800E+05  2880.0      48.000      2.0000     5.47570E-03
 STRESS PERIOD TIME 1.38240E+07 2.30400E+05  3840.0      160.00     0.43806    
         TOTAL TIME 1.38240E+07 2.30400E+05  3840.0      160.00     0.43806    


end timestep


start timestep kper="1" kstp="81" mode="normal"

 UBDSV1 SAVING           STO-SS ON UNIT   1027 AT TIME STEP     81, STRESS PERIOD      1
 UBDSV1 SAVING     FLOW-JA-FACE ON UNIT   1027 AT TIME STEP     81, STRESS PERIOD      1

 WEL PACKAGE (WEL1) FLOW RATES   PERIOD      1   STEP       81
 -----------------------------------------------
   NUMBER   CELLID                    RATE      
 -----------------------------------------------
     1      (1,17,17)            -7.14285714E-05
     2      (1,33,17)            -7.14285714E-05
     3      (1,9,26)             -7.14285714E-05
     4      (1,17,35)            -7.14285714E-05
     5      (1,33,35)            -7.14285714E-05
     6      (1,26,26)            -7.14285714E-05
     7      (1,41,26)            -7.14285714E-05
 -----------------------------------------------




 WEL PACKAGE (WEL2) FLOW RATES   PERIOD      1   STEP       81
 -----------------------------------------------
   NUMBER   CELLID                    RATE      
 -----------------------------------------------
     1      (1,17,26)             2.50000000E-04
     2      (1,33,26)             2.50000000E-04
 -----------------------------------------------




 HEAD WILL BE SAVED ON UNIT 1028 AT END OF TIME STEP   81, STRESS PERIOD    1


  VOLUME BUDGET FOR ENTIRE MODEL AT END OF TIME STEP   81, STRESS PERIOD   1
  ---------------------------------------------------------------------------------------------------

     CUMULATIVE VOLUME      L**3       RATES FOR THIS TIME STEP      L**3/T          PACKAGE NAME    
     ------------------                 ------------------------                     ----------------

           IN:                                      IN:
           ---                                      ---
              STO-SS =           0.0000                STO-SS =           0.0000     STORAGE                          
                 WEL =           0.0000                   WEL =           0.0000     WEL1                             
                 WEL =       8.1000E-02                   WEL =       5.0000E-04     WEL2                             

            TOTAL IN =       8.1000E-02              TOTAL IN =       5.0000E-04

          OUT:                                     OUT:
          ----                                     ----
              STO-SS =           0.0000                STO-SS =           0.0000     STORAGE                          
                 WEL =       8.1000E-02                   WEL =       5.0000E-04     WEL1                             
                 WEL =           0.0000                   WEL =           0.0000     WEL2                             

           TOTAL OUT =       8.1000E-02             TOTAL OUT =       5.0000E-04

            IN - OUT =       3.2400E-11              IN - OUT =       2.0000E-13

 PERCENT DISCREPANCY =           0.00     PERCENT DISCREPANCY =           0.00




         TIME SUMMARY AT END OF TIME STEP   81 IN STRESS PERIOD    1
                    SECONDS     MINUTES      HOURS       DAYS        YEARS
                    -----------------------------------------------------------
   TIME STEP LENGTH 1.72800E+05  2880.0      48.000      2.0000     5.47570E-03
 STRESS PERIOD TIME 1.39968E+07 2.33280E+05  3888.0      162.00     0.44353    
         TOTAL TIME 1.39968E+07 2.33280E+05  3888.0      162.00     0.44353    


end timestep


start timestep kper="1" kstp="82" mode="normal"

 UBDSV1 SAVING           STO-SS ON UNIT   1027 AT TIME STEP     82, STRESS PERIOD      1
 UBDSV1 SAVING     FLOW-JA-FACE ON UNIT   1027 AT TIME STEP     82, STRESS PERIOD      1

 WEL PACKAGE (WEL1) FLOW RATES   PERIOD      1   STEP       82
 -----------------------------------------------
   NUMBER   CELLID                    RATE      
 -----------------------------------------------
     1      (1,17,17)            -7.14285714E-05
     2      (1,33,17)            -7.14285714E-05
     3      (1,9,26)             -7.14285714E-05
     4      (1,17,35)            -7.14285714E-05
     5      (1,33,35)            -7.14285714E-05
     6      (1,26,26)            -7.14285714E-05
     7      (1,41,26)            -7.14285714E-05
 -----------------------------------------------




 WEL PACKAGE (WEL2) FLOW RATES   PERIOD      1   STEP       82
 -----------------------------------------------
   NUMBER   CELLID                    RATE      
 -----------------------------------------------
     1      (1,17,26)             2.50000000E-04
     2      (1,33,26)             2.50000000E-04
 -----------------------------------------------




 HEAD WILL BE SAVED ON UNIT 1028 AT END OF TIME STEP   82, STRESS PERIOD    1


  VOLUME BUDGET FOR ENTIRE MODEL AT END OF TIME STEP   82, STRESS PERIOD   1
  ---------------------------------------------------------------------------------------------------

     CUMULATIVE VOLUME      L**3       RATES FOR THIS TIME STEP      L**3/T          PACKAGE NAME    
     ------------------                 ------------------------                     ----------------

           IN:                                      IN:
           ---                                      ---
              STO-SS =           0.0000                STO-SS =           0.0000     STORAGE                          
                 WEL =           0.0000                   WEL =           0.0000     WEL1                             
                 WEL =       8.2000E-02                   WEL =       5.0000E-04     WEL2                             

            TOTAL IN =       8.2000E-02              TOTAL IN =       5.0000E-04

          OUT:                                     OUT:
          ----                                     ----
              STO-SS =           0.0000                STO-SS =           0.0000     STORAGE                          
                 WEL =       8.2000E-02                   WEL =       5.0000E-04     WEL1                             
                 WEL =           0.0000                   WEL =           0.0000     WEL2                             

           TOTAL OUT =       8.2000E-02             TOTAL OUT =       5.0000E-04

            IN - OUT =       3.2800E-11              IN - OUT =       2.0000E-13

 PERCENT DISCREPANCY =           0.00     PERCENT DISCREPANCY =           0.00




         TIME SUMMARY AT END OF TIME STEP   82 IN STRESS PERIOD    1
                    SECONDS     MINUTES      HOURS       DAYS        YEARS
                    -----------------------------------------------------------
   TIME STEP LENGTH 1.72800E+05  2880.0      48.000      2.0000     5.47570E-03
 STRESS PERIOD TIME 1.41696E+07 2.36160E+05  3936.0      164.00     0.44901    
         TOTAL TIME 1.41696E+07 2.36160E+05  3936.0      164.00     0.44901    


end timestep


start timestep kper="1" kstp="83" mode="normal"

 UBDSV1 SAVING           STO-SS ON UNIT   1027 AT TIME STEP     83, STRESS PERIOD      1
 UBDSV1 SAVING     FLOW-JA-FACE ON UNIT   1027 AT TIME STEP     83, STRESS PERIOD      1

 WEL PACKAGE (WEL1) FLOW RATES   PERIOD      1   STEP       83
 -----------------------------------------------
   NUMBER   CELLID                    RATE      
 -----------------------------------------------
     1      (1,17,17)            -7.14285714E-05
     2      (1,33,17)            -7.14285714E-05
     3      (1,9,26)             -7.14285714E-05
     4      (1,17,35)            -7.14285714E-05
     5      (1,33,35)            -7.14285714E-05
     6      (1,26,26)            -7.14285714E-05
     7      (1,41,26)            -7.14285714E-05
 -----------------------------------------------




 WEL PACKAGE (WEL2) FLOW RATES   PERIOD      1   STEP       83
 -----------------------------------------------
   NUMBER   CELLID                    RATE      
 -----------------------------------------------
     1      (1,17,26)             2.50000000E-04
     2      (1,33,26)             2.50000000E-04
 -----------------------------------------------




 HEAD WILL BE SAVED ON UNIT 1028 AT END OF TIME STEP   83, STRESS PERIOD    1


  VOLUME BUDGET FOR ENTIRE MODEL AT END OF TIME STEP   83, STRESS PERIOD   1
  ---------------------------------------------------------------------------------------------------

     CUMULATIVE VOLUME      L**3       RATES FOR THIS TIME STEP      L**3/T          PACKAGE NAME    
     ------------------                 ------------------------                     ----------------

           IN:                                      IN:
           ---                                      ---
              STO-SS =           0.0000                STO-SS =           0.0000     STORAGE                          
                 WEL =           0.0000                   WEL =           0.0000     WEL1                             
                 WEL =       8.3000E-02                   WEL =       5.0000E-04     WEL2                             

            TOTAL IN =       8.3000E-02              TOTAL IN =       5.0000E-04

          OUT:                                     OUT:
          ----                                     ----
              STO-SS =           0.0000                STO-SS =           0.0000     STORAGE                          
                 WEL =       8.3000E-02                   WEL =       5.0000E-04     WEL1                             
                 WEL =           0.0000                   WEL =           0.0000     WEL2                             

           TOTAL OUT =       8.3000E-02             TOTAL OUT =       5.0000E-04

            IN - OUT =       3.3200E-11              IN - OUT =       2.0000E-13

 PERCENT DISCREPANCY =           0.00     PERCENT DISCREPANCY =           0.00




         TIME SUMMARY AT END OF TIME STEP   83 IN STRESS PERIOD    1
                    SECONDS     MINUTES      HOURS       DAYS        YEARS
                    -----------------------------------------------------------
   TIME STEP LENGTH 1.72800E+05  2880.0      48.000      2.0000     5.47570E-03
 STRESS PERIOD TIME 1.43424E+07 2.39040E+05  3984.0      166.00     0.45448    
         TOTAL TIME 1.43424E+07 2.39040E+05  3984.0      166.00     0.45448    


end timestep


start timestep kper="1" kstp="84" mode="normal"

 UBDSV1 SAVING           STO-SS ON UNIT   1027 AT TIME STEP     84, STRESS PERIOD      1
 UBDSV1 SAVING     FLOW-JA-FACE ON UNIT   1027 AT TIME STEP     84, STRESS PERIOD      1

 WEL PACKAGE (WEL1) FLOW RATES   PERIOD      1   STEP       84
 -----------------------------------------------
   NUMBER   CELLID                    RATE      
 -----------------------------------------------
     1      (1,17,17)            -7.14285714E-05
     2      (1,33,17)            -7.14285714E-05
     3      (1,9,26)             -7.14285714E-05
     4      (1,17,35)            -7.14285714E-05
     5      (1,33,35)            -7.14285714E-05
     6      (1,26,26)            -7.14285714E-05
     7      (1,41,26)            -7.14285714E-05
 -----------------------------------------------




 WEL PACKAGE (WEL2) FLOW RATES   PERIOD      1   STEP       84
 -----------------------------------------------
   NUMBER   CELLID                    RATE      
 -----------------------------------------------
     1      (1,17,26)             2.50000000E-04
     2      (1,33,26)             2.50000000E-04
 -----------------------------------------------




 HEAD WILL BE SAVED ON UNIT 1028 AT END OF TIME STEP   84, STRESS PERIOD    1


  VOLUME BUDGET FOR ENTIRE MODEL AT END OF TIME STEP   84, STRESS PERIOD   1
  ---------------------------------------------------------------------------------------------------

     CUMULATIVE VOLUME      L**3       RATES FOR THIS TIME STEP      L**3/T          PACKAGE NAME    
     ------------------                 ------------------------                     ----------------

           IN:                                      IN:
           ---                                      ---
              STO-SS =           0.0000                STO-SS =           0.0000     STORAGE                          
                 WEL =           0.0000                   WEL =           0.0000     WEL1                             
                 WEL =       8.4000E-02                   WEL =       5.0000E-04     WEL2                             

            TOTAL IN =       8.4000E-02              TOTAL IN =       5.0000E-04

          OUT:                                     OUT:
          ----                                     ----
              STO-SS =           0.0000                STO-SS =           0.0000     STORAGE                          
                 WEL =       8.4000E-02                   WEL =       5.0000E-04     WEL1                             
                 WEL =           0.0000                   WEL =           0.0000     WEL2                             

           TOTAL OUT =       8.4000E-02             TOTAL OUT =       5.0000E-04

            IN - OUT =       3.3600E-11              IN - OUT =       2.0000E-13

 PERCENT DISCREPANCY =           0.00     PERCENT DISCREPANCY =           0.00




         TIME SUMMARY AT END OF TIME STEP   84 IN STRESS PERIOD    1
                    SECONDS     MINUTES      HOURS       DAYS        YEARS
                    -----------------------------------------------------------
   TIME STEP LENGTH 1.72800E+05  2880.0      48.000      2.0000     5.47570E-03
 STRESS PERIOD TIME 1.45152E+07 2.41920E+05  4032.0      168.00     0.45996    
         TOTAL TIME 1.45152E+07 2.41920E+05  4032.0      168.00     0.45996    


end timestep


start timestep kper="1" kstp="85" mode="normal"

 UBDSV1 SAVING           STO-SS ON UNIT   1027 AT TIME STEP     85, STRESS PERIOD      1
 UBDSV1 SAVING     FLOW-JA-FACE ON UNIT   1027 AT TIME STEP     85, STRESS PERIOD      1

 WEL PACKAGE (WEL1) FLOW RATES   PERIOD      1   STEP       85
 -----------------------------------------------
   NUMBER   CELLID                    RATE      
 -----------------------------------------------
     1      (1,17,17)            -7.14285714E-05
     2      (1,33,17)            -7.14285714E-05
     3      (1,9,26)             -7.14285714E-05
     4      (1,17,35)            -7.14285714E-05
     5      (1,33,35)            -7.14285714E-05
     6      (1,26,26)            -7.14285714E-05
     7      (1,41,26)            -7.14285714E-05
 -----------------------------------------------




 WEL PACKAGE (WEL2) FLOW RATES   PERIOD      1   STEP       85
 -----------------------------------------------
   NUMBER   CELLID                    RATE      
 -----------------------------------------------
     1      (1,17,26)             2.50000000E-04
     2      (1,33,26)             2.50000000E-04
 -----------------------------------------------




 HEAD WILL BE SAVED ON UNIT 1028 AT END OF TIME STEP   85, STRESS PERIOD    1


  VOLUME BUDGET FOR ENTIRE MODEL AT END OF TIME STEP   85, STRESS PERIOD   1
  ---------------------------------------------------------------------------------------------------

     CUMULATIVE VOLUME      L**3       RATES FOR THIS TIME STEP      L**3/T          PACKAGE NAME    
     ------------------                 ------------------------                     ----------------

           IN:                                      IN:
           ---                                      ---
              STO-SS =           0.0000                STO-SS =           0.0000     STORAGE                          
                 WEL =           0.0000                   WEL =           0.0000     WEL1                             
                 WEL =       8.5000E-02                   WEL =       5.0000E-04     WEL2                             

            TOTAL IN =       8.5000E-02              TOTAL IN =       5.0000E-04

          OUT:                                     OUT:
          ----                                     ----
              STO-SS =           0.0000                STO-SS =           0.0000     STORAGE                          
                 WEL =       8.5000E-02                   WEL =       5.0000E-04     WEL1                             
                 WEL =           0.0000                   WEL =           0.0000     WEL2                             

           TOTAL OUT =       8.5000E-02             TOTAL OUT =       5.0000E-04

            IN - OUT =       3.4000E-11              IN - OUT =       2.0000E-13

 PERCENT DISCREPANCY =           0.00     PERCENT DISCREPANCY =           0.00




         TIME SUMMARY AT END OF TIME STEP   85 IN STRESS PERIOD    1
                    SECONDS     MINUTES      HOURS       DAYS        YEARS
                    -----------------------------------------------------------
   TIME STEP LENGTH 1.72800E+05  2880.0      48.000      2.0000     5.47570E-03
 STRESS PERIOD TIME 1.46880E+07 2.44800E+05  4080.0      170.00     0.46543    
         TOTAL TIME 1.46880E+07 2.44800E+05  4080.0      170.00     0.46543    


end timestep


start timestep kper="1" kstp="86" mode="normal"

 UBDSV1 SAVING           STO-SS ON UNIT   1027 AT TIME STEP     86, STRESS PERIOD      1
 UBDSV1 SAVING     FLOW-JA-FACE ON UNIT   1027 AT TIME STEP     86, STRESS PERIOD      1

 WEL PACKAGE (WEL1) FLOW RATES   PERIOD      1   STEP       86
 -----------------------------------------------
   NUMBER   CELLID                    RATE      
 -----------------------------------------------
     1      (1,17,17)            -7.14285714E-05
     2      (1,33,17)            -7.14285714E-05
     3      (1,9,26)             -7.14285714E-05
     4      (1,17,35)            -7.14285714E-05
     5      (1,33,35)            -7.14285714E-05
     6      (1,26,26)            -7.14285714E-05
     7      (1,41,26)            -7.14285714E-05
 -----------------------------------------------




 WEL PACKAGE (WEL2) FLOW RATES   PERIOD      1   STEP       86
 -----------------------------------------------
   NUMBER   CELLID                    RATE      
 -----------------------------------------------
     1      (1,17,26)             2.50000000E-04
     2      (1,33,26)             2.50000000E-04
 -----------------------------------------------




 HEAD WILL BE SAVED ON UNIT 1028 AT END OF TIME STEP   86, STRESS PERIOD    1


  VOLUME BUDGET FOR ENTIRE MODEL AT END OF TIME STEP   86, STRESS PERIOD   1
  ---------------------------------------------------------------------------------------------------

     CUMULATIVE VOLUME      L**3       RATES FOR THIS TIME STEP      L**3/T          PACKAGE NAME    
     ------------------                 ------------------------                     ----------------

           IN:                                      IN:
           ---                                      ---
              STO-SS =           0.0000                STO-SS =           0.0000     STORAGE                          
                 WEL =           0.0000                   WEL =           0.0000     WEL1                             
                 WEL =       8.6000E-02                   WEL =       5.0000E-04     WEL2                             

            TOTAL IN =       8.6000E-02              TOTAL IN =       5.0000E-04

          OUT:                                     OUT:
          ----                                     ----
              STO-SS =           0.0000                STO-SS =           0.0000     STORAGE                          
                 WEL =       8.6000E-02                   WEL =       5.0000E-04     WEL1                             
                 WEL =           0.0000                   WEL =           0.0000     WEL2                             

           TOTAL OUT =       8.6000E-02             TOTAL OUT =       5.0000E-04

            IN - OUT =       3.4400E-11              IN - OUT =       2.0000E-13

 PERCENT DISCREPANCY =           0.00     PERCENT DISCREPANCY =           0.00




         TIME SUMMARY AT END OF TIME STEP   86 IN STRESS PERIOD    1
                    SECONDS     MINUTES      HOURS       DAYS        YEARS
                    -----------------------------------------------------------
   TIME STEP LENGTH 1.72800E+05  2880.0      48.000      2.0000     5.47570E-03
 STRESS PERIOD TIME 1.48608E+07 2.47680E+05  4128.0      172.00     0.47091    
         TOTAL TIME 1.48608E+07 2.47680E+05  4128.0      172.00     0.47091    


end timestep


start timestep kper="1" kstp="87" mode="normal"

 UBDSV1 SAVING           STO-SS ON UNIT   1027 AT TIME STEP     87, STRESS PERIOD      1
 UBDSV1 SAVING     FLOW-JA-FACE ON UNIT   1027 AT TIME STEP     87, STRESS PERIOD      1

 WEL PACKAGE (WEL1) FLOW RATES   PERIOD      1   STEP       87
 -----------------------------------------------
   NUMBER   CELLID                    RATE      
 -----------------------------------------------
     1      (1,17,17)            -7.14285714E-05
     2      (1,33,17)            -7.14285714E-05
     3      (1,9,26)             -7.14285714E-05
     4      (1,17,35)            -7.14285714E-05
     5      (1,33,35)            -7.14285714E-05
     6      (1,26,26)            -7.14285714E-05
     7      (1,41,26)            -7.14285714E-05
 -----------------------------------------------




 WEL PACKAGE (WEL2) FLOW RATES   PERIOD      1   STEP       87
 -----------------------------------------------
   NUMBER   CELLID                    RATE      
 -----------------------------------------------
     1      (1,17,26)             2.50000000E-04
     2      (1,33,26)             2.50000000E-04
 -----------------------------------------------




 HEAD WILL BE SAVED ON UNIT 1028 AT END OF TIME STEP   87, STRESS PERIOD    1


  VOLUME BUDGET FOR ENTIRE MODEL AT END OF TIME STEP   87, STRESS PERIOD   1
  ---------------------------------------------------------------------------------------------------

     CUMULATIVE VOLUME      L**3       RATES FOR THIS TIME STEP      L**3/T          PACKAGE NAME    
     ------------------                 ------------------------                     ----------------

           IN:                                      IN:
           ---                                      ---
              STO-SS =           0.0000                STO-SS =           0.0000     STORAGE                          
                 WEL =           0.0000                   WEL =           0.0000     WEL1                             
                 WEL =       8.7000E-02                   WEL =       5.0000E-04     WEL2                             

            TOTAL IN =       8.7000E-02              TOTAL IN =       5.0000E-04

          OUT:                                     OUT:
          ----                                     ----
              STO-SS =           0.0000                STO-SS =           0.0000     STORAGE                          
                 WEL =       8.7000E-02                   WEL =       5.0000E-04     WEL1                             
                 WEL =           0.0000                   WEL =           0.0000     WEL2                             

           TOTAL OUT =       8.7000E-02             TOTAL OUT =       5.0000E-04

            IN - OUT =       3.4800E-11              IN - OUT =       2.0000E-13

 PERCENT DISCREPANCY =           0.00     PERCENT DISCREPANCY =           0.00




         TIME SUMMARY AT END OF TIME STEP   87 IN STRESS PERIOD    1
                    SECONDS     MINUTES      HOURS       DAYS        YEARS
                    -----------------------------------------------------------
   TIME STEP LENGTH 1.72800E+05  2880.0      48.000      2.0000     5.47570E-03
 STRESS PERIOD TIME 1.50336E+07 2.50560E+05  4176.0      174.00     0.47639    
         TOTAL TIME 1.50336E+07 2.50560E+05  4176.0      174.00     0.47639    


end timestep


start timestep kper="1" kstp="88" mode="normal"

 UBDSV1 SAVING           STO-SS ON UNIT   1027 AT TIME STEP     88, STRESS PERIOD      1
 UBDSV1 SAVING     FLOW-JA-FACE ON UNIT   1027 AT TIME STEP     88, STRESS PERIOD      1

 WEL PACKAGE (WEL1) FLOW RATES   PERIOD      1   STEP       88
 -----------------------------------------------
   NUMBER   CELLID                    RATE      
 -----------------------------------------------
     1      (1,17,17)            -7.14285714E-05
     2      (1,33,17)            -7.14285714E-05
     3      (1,9,26)             -7.14285714E-05
     4      (1,17,35)            -7.14285714E-05
     5      (1,33,35)            -7.14285714E-05
     6      (1,26,26)            -7.14285714E-05
     7      (1,41,26)            -7.14285714E-05
 -----------------------------------------------




 WEL PACKAGE (WEL2) FLOW RATES   PERIOD      1   STEP       88
 -----------------------------------------------
   NUMBER   CELLID                    RATE      
 -----------------------------------------------
     1      (1,17,26)             2.50000000E-04
     2      (1,33,26)             2.50000000E-04
 -----------------------------------------------




 HEAD WILL BE SAVED ON UNIT 1028 AT END OF TIME STEP   88, STRESS PERIOD    1


  VOLUME BUDGET FOR ENTIRE MODEL AT END OF TIME STEP   88, STRESS PERIOD   1
  ---------------------------------------------------------------------------------------------------

     CUMULATIVE VOLUME      L**3       RATES FOR THIS TIME STEP      L**3/T          PACKAGE NAME    
     ------------------                 ------------------------                     ----------------

           IN:                                      IN:
           ---                                      ---
              STO-SS =           0.0000                STO-SS =           0.0000     STORAGE                          
                 WEL =           0.0000                   WEL =           0.0000     WEL1                             
                 WEL =       8.8000E-02                   WEL =       5.0000E-04     WEL2                             

            TOTAL IN =       8.8000E-02              TOTAL IN =       5.0000E-04

          OUT:                                     OUT:
          ----                                     ----
              STO-SS =           0.0000                STO-SS =           0.0000     STORAGE                          
                 WEL =       8.8000E-02                   WEL =       5.0000E-04     WEL1                             
                 WEL =           0.0000                   WEL =           0.0000     WEL2                             

           TOTAL OUT =       8.8000E-02             TOTAL OUT =       5.0000E-04

            IN - OUT =       3.5200E-11              IN - OUT =       2.0000E-13

 PERCENT DISCREPANCY =           0.00     PERCENT DISCREPANCY =           0.00




         TIME SUMMARY AT END OF TIME STEP   88 IN STRESS PERIOD    1
                    SECONDS     MINUTES      HOURS       DAYS        YEARS
                    -----------------------------------------------------------
   TIME STEP LENGTH 1.72800E+05  2880.0      48.000      2.0000     5.47570E-03
 STRESS PERIOD TIME 1.52064E+07 2.53440E+05  4224.0      176.00     0.48186    
         TOTAL TIME 1.52064E+07 2.53440E+05  4224.0      176.00     0.48186    


end timestep


start timestep kper="1" kstp="89" mode="normal"

 UBDSV1 SAVING           STO-SS ON UNIT   1027 AT TIME STEP     89, STRESS PERIOD      1
 UBDSV1 SAVING     FLOW-JA-FACE ON UNIT   1027 AT TIME STEP     89, STRESS PERIOD      1

 WEL PACKAGE (WEL1) FLOW RATES   PERIOD      1   STEP       89
 -----------------------------------------------
   NUMBER   CELLID                    RATE      
 -----------------------------------------------
     1      (1,17,17)            -7.14285714E-05
     2      (1,33,17)            -7.14285714E-05
     3      (1,9,26)             -7.14285714E-05
     4      (1,17,35)            -7.14285714E-05
     5      (1,33,35)            -7.14285714E-05
     6      (1,26,26)            -7.14285714E-05
     7      (1,41,26)            -7.14285714E-05
 -----------------------------------------------




 WEL PACKAGE (WEL2) FLOW RATES   PERIOD      1   STEP       89
 -----------------------------------------------
   NUMBER   CELLID                    RATE      
 -----------------------------------------------
     1      (1,17,26)             2.50000000E-04
     2      (1,33,26)             2.50000000E-04
 -----------------------------------------------




 HEAD WILL BE SAVED ON UNIT 1028 AT END OF TIME STEP   89, STRESS PERIOD    1


  VOLUME BUDGET FOR ENTIRE MODEL AT END OF TIME STEP   89, STRESS PERIOD   1
  ---------------------------------------------------------------------------------------------------

     CUMULATIVE VOLUME      L**3       RATES FOR THIS TIME STEP      L**3/T          PACKAGE NAME    
     ------------------                 ------------------------                     ----------------

           IN:                                      IN:
           ---                                      ---
              STO-SS =           0.0000                STO-SS =           0.0000     STORAGE                          
                 WEL =           0.0000                   WEL =           0.0000     WEL1                             
                 WEL =       8.9000E-02                   WEL =       5.0000E-04     WEL2                             

            TOTAL IN =       8.9000E-02              TOTAL IN =       5.0000E-04

          OUT:                                     OUT:
          ----                                     ----
              STO-SS =           0.0000                STO-SS =           0.0000     STORAGE                          
                 WEL =       8.9000E-02                   WEL =       5.0000E-04     WEL1                             
                 WEL =           0.0000                   WEL =           0.0000     WEL2                             

           TOTAL OUT =       8.9000E-02             TOTAL OUT =       5.0000E-04

            IN - OUT =       3.5600E-11              IN - OUT =       2.0000E-13

 PERCENT DISCREPANCY =           0.00     PERCENT DISCREPANCY =           0.00




         TIME SUMMARY AT END OF TIME STEP   89 IN STRESS PERIOD    1
                    SECONDS     MINUTES      HOURS       DAYS        YEARS
                    -----------------------------------------------------------
   TIME STEP LENGTH 1.72800E+05  2880.0      48.000      2.0000     5.47570E-03
 STRESS PERIOD TIME 1.53792E+07 2.56320E+05  4272.0      178.00     0.48734    
         TOTAL TIME 1.53792E+07 2.56320E+05  4272.0      178.00     0.48734    


end timestep


start timestep kper="1" kstp="90" mode="normal"

 UBDSV1 SAVING           STO-SS ON UNIT   1027 AT TIME STEP     90, STRESS PERIOD      1
 UBDSV1 SAVING     FLOW-JA-FACE ON UNIT   1027 AT TIME STEP     90, STRESS PERIOD      1

 WEL PACKAGE (WEL1) FLOW RATES   PERIOD      1   STEP       90
 -----------------------------------------------
   NUMBER   CELLID                    RATE      
 -----------------------------------------------
     1      (1,17,17)            -7.14285714E-05
     2      (1,33,17)            -7.14285714E-05
     3      (1,9,26)             -7.14285714E-05
     4      (1,17,35)            -7.14285714E-05
     5      (1,33,35)            -7.14285714E-05
     6      (1,26,26)            -7.14285714E-05
     7      (1,41,26)            -7.14285714E-05
 -----------------------------------------------




 WEL PACKAGE (WEL2) FLOW RATES   PERIOD      1   STEP       90
 -----------------------------------------------
   NUMBER   CELLID                    RATE      
 -----------------------------------------------
     1      (1,17,26)             2.50000000E-04
     2      (1,33,26)             2.50000000E-04
 -----------------------------------------------




 HEAD WILL BE SAVED ON UNIT 1028 AT END OF TIME STEP   90, STRESS PERIOD    1


  VOLUME BUDGET FOR ENTIRE MODEL AT END OF TIME STEP   90, STRESS PERIOD   1
  ---------------------------------------------------------------------------------------------------

     CUMULATIVE VOLUME      L**3       RATES FOR THIS TIME STEP      L**3/T          PACKAGE NAME    
     ------------------                 ------------------------                     ----------------

           IN:                                      IN:
           ---                                      ---
              STO-SS =           0.0000                STO-SS =           0.0000     STORAGE                          
                 WEL =           0.0000                   WEL =           0.0000     WEL1                             
                 WEL =       9.0000E-02                   WEL =       5.0000E-04     WEL2                             

            TOTAL IN =       9.0000E-02              TOTAL IN =       5.0000E-04

          OUT:                                     OUT:
          ----                                     ----
              STO-SS =           0.0000                STO-SS =           0.0000     STORAGE                          
                 WEL =       9.0000E-02                   WEL =       5.0000E-04     WEL1                             
                 WEL =           0.0000                   WEL =           0.0000     WEL2                             

           TOTAL OUT =       9.0000E-02             TOTAL OUT =       5.0000E-04

            IN - OUT =       3.6000E-11              IN - OUT =       2.0000E-13

 PERCENT DISCREPANCY =           0.00     PERCENT DISCREPANCY =           0.00




         TIME SUMMARY AT END OF TIME STEP   90 IN STRESS PERIOD    1
                    SECONDS     MINUTES      HOURS       DAYS        YEARS
                    -----------------------------------------------------------
   TIME STEP LENGTH 1.72800E+05  2880.0      48.000      2.0000     5.47570E-03
 STRESS PERIOD TIME 1.55520E+07 2.59200E+05  4320.0      180.00     0.49281    
         TOTAL TIME 1.55520E+07 2.59200E+05  4320.0      180.00     0.49281    


end timestep


start timestep kper="1" kstp="91" mode="normal"

 UBDSV1 SAVING           STO-SS ON UNIT   1027 AT TIME STEP     91, STRESS PERIOD      1
 UBDSV1 SAVING     FLOW-JA-FACE ON UNIT   1027 AT TIME STEP     91, STRESS PERIOD      1

 WEL PACKAGE (WEL1) FLOW RATES   PERIOD      1   STEP       91
 -----------------------------------------------
   NUMBER   CELLID                    RATE      
 -----------------------------------------------
     1      (1,17,17)            -7.14285714E-05
     2      (1,33,17)            -7.14285714E-05
     3      (1,9,26)             -7.14285714E-05
     4      (1,17,35)            -7.14285714E-05
     5      (1,33,35)            -7.14285714E-05
     6      (1,26,26)            -7.14285714E-05
     7      (1,41,26)            -7.14285714E-05
 -----------------------------------------------




 WEL PACKAGE (WEL2) FLOW RATES   PERIOD      1   STEP       91
 -----------------------------------------------
   NUMBER   CELLID                    RATE      
 -----------------------------------------------
     1      (1,17,26)             2.50000000E-04
     2      (1,33,26)             2.50000000E-04
 -----------------------------------------------




 HEAD WILL BE SAVED ON UNIT 1028 AT END OF TIME STEP   91, STRESS PERIOD    1


  VOLUME BUDGET FOR ENTIRE MODEL AT END OF TIME STEP   91, STRESS PERIOD   1
  ---------------------------------------------------------------------------------------------------

     CUMULATIVE VOLUME      L**3       RATES FOR THIS TIME STEP      L**3/T          PACKAGE NAME    
     ------------------                 ------------------------                     ----------------

           IN:                                      IN:
           ---                                      ---
              STO-SS =           0.0000                STO-SS =           0.0000     STORAGE                          
                 WEL =           0.0000                   WEL =           0.0000     WEL1                             
                 WEL =       9.1000E-02                   WEL =       5.0000E-04     WEL2                             

            TOTAL IN =       9.1000E-02              TOTAL IN =       5.0000E-04

          OUT:                                     OUT:
          ----                                     ----
              STO-SS =           0.0000                STO-SS =           0.0000     STORAGE                          
                 WEL =       9.1000E-02                   WEL =       5.0000E-04     WEL1                             
                 WEL =           0.0000                   WEL =           0.0000     WEL2                             

           TOTAL OUT =       9.1000E-02             TOTAL OUT =       5.0000E-04

            IN - OUT =       3.6400E-11              IN - OUT =       2.0000E-13

 PERCENT DISCREPANCY =           0.00     PERCENT DISCREPANCY =           0.00




         TIME SUMMARY AT END OF TIME STEP   91 IN STRESS PERIOD    1
                    SECONDS     MINUTES      HOURS       DAYS        YEARS
                    -----------------------------------------------------------
   TIME STEP LENGTH 1.72800E+05  2880.0      48.000      2.0000     5.47570E-03
 STRESS PERIOD TIME 1.57248E+07 2.62080E+05  4368.0      182.00     0.49829    
         TOTAL TIME 1.57248E+07 2.62080E+05  4368.0      182.00     0.49829    


end timestep


start timestep kper="1" kstp="92" mode="normal"

 UBDSV1 SAVING           STO-SS ON UNIT   1027 AT TIME STEP     92, STRESS PERIOD      1
 UBDSV1 SAVING     FLOW-JA-FACE ON UNIT   1027 AT TIME STEP     92, STRESS PERIOD      1

 WEL PACKAGE (WEL1) FLOW RATES   PERIOD      1   STEP       92
 -----------------------------------------------
   NUMBER   CELLID                    RATE      
 -----------------------------------------------
     1      (1,17,17)            -7.14285714E-05
     2      (1,33,17)            -7.14285714E-05
     3      (1,9,26)             -7.14285714E-05
     4      (1,17,35)            -7.14285714E-05
     5      (1,33,35)            -7.14285714E-05
     6      (1,26,26)            -7.14285714E-05
     7      (1,41,26)            -7.14285714E-05
 -----------------------------------------------




 WEL PACKAGE (WEL2) FLOW RATES   PERIOD      1   STEP       92
 -----------------------------------------------
   NUMBER   CELLID                    RATE      
 -----------------------------------------------
     1      (1,17,26)             2.50000000E-04
     2      (1,33,26)             2.50000000E-04
 -----------------------------------------------




 HEAD WILL BE SAVED ON UNIT 1028 AT END OF TIME STEP   92, STRESS PERIOD    1


  VOLUME BUDGET FOR ENTIRE MODEL AT END OF TIME STEP   92, STRESS PERIOD   1
  ---------------------------------------------------------------------------------------------------

     CUMULATIVE VOLUME      L**3       RATES FOR THIS TIME STEP      L**3/T          PACKAGE NAME    
     ------------------                 ------------------------                     ----------------

           IN:                                      IN:
           ---                                      ---
              STO-SS =           0.0000                STO-SS =           0.0000     STORAGE                          
                 WEL =           0.0000                   WEL =           0.0000     WEL1                             
                 WEL =       9.2000E-02                   WEL =       5.0000E-04     WEL2                             

            TOTAL IN =       9.2000E-02              TOTAL IN =       5.0000E-04

          OUT:                                     OUT:
          ----                                     ----
              STO-SS =           0.0000                STO-SS =           0.0000     STORAGE                          
                 WEL =       9.2000E-02                   WEL =       5.0000E-04     WEL1                             
                 WEL =           0.0000                   WEL =           0.0000     WEL2                             

           TOTAL OUT =       9.2000E-02             TOTAL OUT =       5.0000E-04

            IN - OUT =       3.6800E-11              IN - OUT =       2.0000E-13

 PERCENT DISCREPANCY =           0.00     PERCENT DISCREPANCY =           0.00




         TIME SUMMARY AT END OF TIME STEP   92 IN STRESS PERIOD    1
                    SECONDS     MINUTES      HOURS       DAYS        YEARS
                    -----------------------------------------------------------
   TIME STEP LENGTH 1.72800E+05  2880.0      48.000      2.0000     5.47570E-03
 STRESS PERIOD TIME 1.58976E+07 2.64960E+05  4416.0      184.00     0.50376    
         TOTAL TIME 1.58976E+07 2.64960E+05  4416.0      184.00     0.50376    


end timestep


start timestep kper="1" kstp="93" mode="normal"

 UBDSV1 SAVING           STO-SS ON UNIT   1027 AT TIME STEP     93, STRESS PERIOD      1
 UBDSV1 SAVING     FLOW-JA-FACE ON UNIT   1027 AT TIME STEP     93, STRESS PERIOD      1

 WEL PACKAGE (WEL1) FLOW RATES   PERIOD      1   STEP       93
 -----------------------------------------------
   NUMBER   CELLID                    RATE      
 -----------------------------------------------
     1      (1,17,17)            -7.14285714E-05
     2      (1,33,17)            -7.14285714E-05
     3      (1,9,26)             -7.14285714E-05
     4      (1,17,35)            -7.14285714E-05
     5      (1,33,35)            -7.14285714E-05
     6      (1,26,26)            -7.14285714E-05
     7      (1,41,26)            -7.14285714E-05
 -----------------------------------------------




 WEL PACKAGE (WEL2) FLOW RATES   PERIOD      1   STEP       93
 -----------------------------------------------
   NUMBER   CELLID                    RATE      
 -----------------------------------------------
     1      (1,17,26)             2.50000000E-04
     2      (1,33,26)             2.50000000E-04
 -----------------------------------------------




 HEAD WILL BE SAVED ON UNIT 1028 AT END OF TIME STEP   93, STRESS PERIOD    1


  VOLUME BUDGET FOR ENTIRE MODEL AT END OF TIME STEP   93, STRESS PERIOD   1
  ---------------------------------------------------------------------------------------------------

     CUMULATIVE VOLUME      L**3       RATES FOR THIS TIME STEP      L**3/T          PACKAGE NAME    
     ------------------                 ------------------------                     ----------------

           IN:                                      IN:
           ---                                      ---
              STO-SS =           0.0000                STO-SS =           0.0000     STORAGE                          
                 WEL =           0.0000                   WEL =           0.0000     WEL1                             
                 WEL =       9.3000E-02                   WEL =       5.0000E-04     WEL2                             

            TOTAL IN =       9.3000E-02              TOTAL IN =       5.0000E-04

          OUT:                                     OUT:
          ----                                     ----
              STO-SS =           0.0000                STO-SS =           0.0000     STORAGE                          
                 WEL =       9.3000E-02                   WEL =       5.0000E-04     WEL1                             
                 WEL =           0.0000                   WEL =           0.0000     WEL2                             

           TOTAL OUT =       9.3000E-02             TOTAL OUT =       5.0000E-04

            IN - OUT =       3.7200E-11              IN - OUT =       2.0000E-13

 PERCENT DISCREPANCY =           0.00     PERCENT DISCREPANCY =           0.00




         TIME SUMMARY AT END OF TIME STEP   93 IN STRESS PERIOD    1
                    SECONDS     MINUTES      HOURS       DAYS        YEARS
                    -----------------------------------------------------------
   TIME STEP LENGTH 1.72800E+05  2880.0      48.000      2.0000     5.47570E-03
 STRESS PERIOD TIME 1.60704E+07 2.67840E+05  4464.0      186.00     0.50924    
         TOTAL TIME 1.60704E+07 2.67840E+05  4464.0      186.00     0.50924    


end timestep


start timestep kper="1" kstp="94" mode="normal"

 UBDSV1 SAVING           STO-SS ON UNIT   1027 AT TIME STEP     94, STRESS PERIOD      1
 UBDSV1 SAVING     FLOW-JA-FACE ON UNIT   1027 AT TIME STEP     94, STRESS PERIOD      1

 WEL PACKAGE (WEL1) FLOW RATES   PERIOD      1   STEP       94
 -----------------------------------------------
   NUMBER   CELLID                    RATE      
 -----------------------------------------------
     1      (1,17,17)            -7.14285714E-05
     2      (1,33,17)            -7.14285714E-05
     3      (1,9,26)             -7.14285714E-05
     4      (1,17,35)            -7.14285714E-05
     5      (1,33,35)            -7.14285714E-05
     6      (1,26,26)            -7.14285714E-05
     7      (1,41,26)            -7.14285714E-05
 -----------------------------------------------




 WEL PACKAGE (WEL2) FLOW RATES   PERIOD      1   STEP       94
 -----------------------------------------------
   NUMBER   CELLID                    RATE      
 -----------------------------------------------
     1      (1,17,26)             2.50000000E-04
     2      (1,33,26)             2.50000000E-04
 -----------------------------------------------




 HEAD WILL BE SAVED ON UNIT 1028 AT END OF TIME STEP   94, STRESS PERIOD    1


  VOLUME BUDGET FOR ENTIRE MODEL AT END OF TIME STEP   94, STRESS PERIOD   1
  ---------------------------------------------------------------------------------------------------

     CUMULATIVE VOLUME      L**3       RATES FOR THIS TIME STEP      L**3/T          PACKAGE NAME    
     ------------------                 ------------------------                     ----------------

           IN:                                      IN:
           ---                                      ---
              STO-SS =           0.0000                STO-SS =           0.0000     STORAGE                          
                 WEL =           0.0000                   WEL =           0.0000     WEL1                             
                 WEL =       9.4000E-02                   WEL =       5.0000E-04     WEL2                             

            TOTAL IN =       9.4000E-02              TOTAL IN =       5.0000E-04

          OUT:                                     OUT:
          ----                                     ----
              STO-SS =           0.0000                STO-SS =           0.0000     STORAGE                          
                 WEL =       9.4000E-02                   WEL =       5.0000E-04     WEL1                             
                 WEL =           0.0000                   WEL =           0.0000     WEL2                             

           TOTAL OUT =       9.4000E-02             TOTAL OUT =       5.0000E-04

            IN - OUT =       3.7600E-11              IN - OUT =       2.0000E-13

 PERCENT DISCREPANCY =           0.00     PERCENT DISCREPANCY =           0.00




         TIME SUMMARY AT END OF TIME STEP   94 IN STRESS PERIOD    1
                    SECONDS     MINUTES      HOURS       DAYS        YEARS
                    -----------------------------------------------------------
   TIME STEP LENGTH 1.72800E+05  2880.0      48.000      2.0000     5.47570E-03
 STRESS PERIOD TIME 1.62432E+07 2.70720E+05  4512.0      188.00     0.51472    
         TOTAL TIME 1.62432E+07 2.70720E+05  4512.0      188.00     0.51472    


end timestep


start timestep kper="1" kstp="95" mode="normal"

 UBDSV1 SAVING           STO-SS ON UNIT   1027 AT TIME STEP     95, STRESS PERIOD      1
 UBDSV1 SAVING     FLOW-JA-FACE ON UNIT   1027 AT TIME STEP     95, STRESS PERIOD      1

 WEL PACKAGE (WEL1) FLOW RATES   PERIOD      1   STEP       95
 -----------------------------------------------
   NUMBER   CELLID                    RATE      
 -----------------------------------------------
     1      (1,17,17)            -7.14285714E-05
     2      (1,33,17)            -7.14285714E-05
     3      (1,9,26)             -7.14285714E-05
     4      (1,17,35)            -7.14285714E-05
     5      (1,33,35)            -7.14285714E-05
     6      (1,26,26)            -7.14285714E-05
     7      (1,41,26)            -7.14285714E-05
 -----------------------------------------------




 WEL PACKAGE (WEL2) FLOW RATES   PERIOD      1   STEP       95
 -----------------------------------------------
   NUMBER   CELLID                    RATE      
 -----------------------------------------------
     1      (1,17,26)             2.50000000E-04
     2      (1,33,26)             2.50000000E-04
 -----------------------------------------------




 HEAD WILL BE SAVED ON UNIT 1028 AT END OF TIME STEP   95, STRESS PERIOD    1


  VOLUME BUDGET FOR ENTIRE MODEL AT END OF TIME STEP   95, STRESS PERIOD   1
  ---------------------------------------------------------------------------------------------------

     CUMULATIVE VOLUME      L**3       RATES FOR THIS TIME STEP      L**3/T          PACKAGE NAME    
     ------------------                 ------------------------                     ----------------

           IN:                                      IN:
           ---                                      ---
              STO-SS =           0.0000                STO-SS =           0.0000     STORAGE                          
                 WEL =           0.0000                   WEL =           0.0000     WEL1                             
                 WEL =       9.5000E-02                   WEL =       5.0000E-04     WEL2                             

            TOTAL IN =       9.5000E-02              TOTAL IN =       5.0000E-04

          OUT:                                     OUT:
          ----                                     ----
              STO-SS =           0.0000                STO-SS =           0.0000     STORAGE                          
                 WEL =       9.5000E-02                   WEL =       5.0000E-04     WEL1                             
                 WEL =           0.0000                   WEL =           0.0000     WEL2                             

           TOTAL OUT =       9.5000E-02             TOTAL OUT =       5.0000E-04

            IN - OUT =       3.8000E-11              IN - OUT =       2.0000E-13

 PERCENT DISCREPANCY =           0.00     PERCENT DISCREPANCY =           0.00




         TIME SUMMARY AT END OF TIME STEP   95 IN STRESS PERIOD    1
                    SECONDS     MINUTES      HOURS       DAYS        YEARS
                    -----------------------------------------------------------
   TIME STEP LENGTH 1.72800E+05  2880.0      48.000      2.0000     5.47570E-03
 STRESS PERIOD TIME 1.64160E+07 2.73600E+05  4560.0      190.00     0.52019    
         TOTAL TIME 1.64160E+07 2.73600E+05  4560.0      190.00     0.52019    


end timestep


start timestep kper="1" kstp="96" mode="normal"

 UBDSV1 SAVING           STO-SS ON UNIT   1027 AT TIME STEP     96, STRESS PERIOD      1
 UBDSV1 SAVING     FLOW-JA-FACE ON UNIT   1027 AT TIME STEP     96, STRESS PERIOD      1

 WEL PACKAGE (WEL1) FLOW RATES   PERIOD      1   STEP       96
 -----------------------------------------------
   NUMBER   CELLID                    RATE      
 -----------------------------------------------
     1      (1,17,17)            -7.14285714E-05
     2      (1,33,17)            -7.14285714E-05
     3      (1,9,26)             -7.14285714E-05
     4      (1,17,35)            -7.14285714E-05
     5      (1,33,35)            -7.14285714E-05
     6      (1,26,26)            -7.14285714E-05
     7      (1,41,26)            -7.14285714E-05
 -----------------------------------------------




 WEL PACKAGE (WEL2) FLOW RATES   PERIOD      1   STEP       96
 -----------------------------------------------
   NUMBER   CELLID                    RATE      
 -----------------------------------------------
     1      (1,17,26)             2.50000000E-04
     2      (1,33,26)             2.50000000E-04
 -----------------------------------------------




 HEAD WILL BE SAVED ON UNIT 1028 AT END OF TIME STEP   96, STRESS PERIOD    1


  VOLUME BUDGET FOR ENTIRE MODEL AT END OF TIME STEP   96, STRESS PERIOD   1
  ---------------------------------------------------------------------------------------------------

     CUMULATIVE VOLUME      L**3       RATES FOR THIS TIME STEP      L**3/T          PACKAGE NAME    
     ------------------                 ------------------------                     ----------------

           IN:                                      IN:
           ---                                      ---
              STO-SS =           0.0000                STO-SS =           0.0000     STORAGE                          
                 WEL =           0.0000                   WEL =           0.0000     WEL1                             
                 WEL =       9.6000E-02                   WEL =       5.0000E-04     WEL2                             

            TOTAL IN =       9.6000E-02              TOTAL IN =       5.0000E-04

          OUT:                                     OUT:
          ----                                     ----
              STO-SS =           0.0000                STO-SS =           0.0000     STORAGE                          
                 WEL =       9.6000E-02                   WEL =       5.0000E-04     WEL1                             
                 WEL =           0.0000                   WEL =           0.0000     WEL2                             

           TOTAL OUT =       9.6000E-02             TOTAL OUT =       5.0000E-04

            IN - OUT =       3.8400E-11              IN - OUT =       2.0000E-13

 PERCENT DISCREPANCY =           0.00     PERCENT DISCREPANCY =           0.00




         TIME SUMMARY AT END OF TIME STEP   96 IN STRESS PERIOD    1
                    SECONDS     MINUTES      HOURS       DAYS        YEARS
                    -----------------------------------------------------------
   TIME STEP LENGTH 1.72800E+05  2880.0      48.000      2.0000     5.47570E-03
 STRESS PERIOD TIME 1.65888E+07 2.76480E+05  4608.0      192.00     0.52567    
         TOTAL TIME 1.65888E+07 2.76480E+05  4608.0      192.00     0.52567    


end timestep


start timestep kper="1" kstp="97" mode="normal"

 UBDSV1 SAVING           STO-SS ON UNIT   1027 AT TIME STEP     97, STRESS PERIOD      1
 UBDSV1 SAVING     FLOW-JA-FACE ON UNIT   1027 AT TIME STEP     97, STRESS PERIOD      1

 WEL PACKAGE (WEL1) FLOW RATES   PERIOD      1   STEP       97
 -----------------------------------------------
   NUMBER   CELLID                    RATE      
 -----------------------------------------------
     1      (1,17,17)            -7.14285714E-05
     2      (1,33,17)            -7.14285714E-05
     3      (1,9,26)             -7.14285714E-05
     4      (1,17,35)            -7.14285714E-05
     5      (1,33,35)            -7.14285714E-05
     6      (1,26,26)            -7.14285714E-05
     7      (1,41,26)            -7.14285714E-05
 -----------------------------------------------




 WEL PACKAGE (WEL2) FLOW RATES   PERIOD      1   STEP       97
 -----------------------------------------------
   NUMBER   CELLID                    RATE      
 -----------------------------------------------
     1      (1,17,26)             2.50000000E-04
     2      (1,33,26)             2.50000000E-04
 -----------------------------------------------




 HEAD WILL BE SAVED ON UNIT 1028 AT END OF TIME STEP   97, STRESS PERIOD    1


  VOLUME BUDGET FOR ENTIRE MODEL AT END OF TIME STEP   97, STRESS PERIOD   1
  ---------------------------------------------------------------------------------------------------

     CUMULATIVE VOLUME      L**3       RATES FOR THIS TIME STEP      L**3/T          PACKAGE NAME    
     ------------------                 ------------------------                     ----------------

           IN:                                      IN:
           ---                                      ---
              STO-SS =           0.0000                STO-SS =           0.0000     STORAGE                          
                 WEL =           0.0000                   WEL =           0.0000     WEL1                             
                 WEL =       9.7000E-02                   WEL =       5.0000E-04     WEL2                             

            TOTAL IN =       9.7000E-02              TOTAL IN =       5.0000E-04

          OUT:                                     OUT:
          ----                                     ----
              STO-SS =           0.0000                STO-SS =           0.0000     STORAGE                          
                 WEL =       9.7000E-02                   WEL =       5.0000E-04     WEL1                             
                 WEL =           0.0000                   WEL =           0.0000     WEL2                             

           TOTAL OUT =       9.7000E-02             TOTAL OUT =       5.0000E-04

            IN - OUT =       3.8800E-11              IN - OUT =       2.0000E-13

 PERCENT DISCREPANCY =           0.00     PERCENT DISCREPANCY =           0.00




         TIME SUMMARY AT END OF TIME STEP   97 IN STRESS PERIOD    1
                    SECONDS     MINUTES      HOURS       DAYS        YEARS
                    -----------------------------------------------------------
   TIME STEP LENGTH 1.72800E+05  2880.0      48.000      2.0000     5.47570E-03
 STRESS PERIOD TIME 1.67616E+07 2.79360E+05  4656.0      194.00     0.53114    
         TOTAL TIME 1.67616E+07 2.79360E+05  4656.0      194.00     0.53114    


end timestep


start timestep kper="1" kstp="98" mode="normal"

 UBDSV1 SAVING           STO-SS ON UNIT   1027 AT TIME STEP     98, STRESS PERIOD      1
 UBDSV1 SAVING     FLOW-JA-FACE ON UNIT   1027 AT TIME STEP     98, STRESS PERIOD      1

 WEL PACKAGE (WEL1) FLOW RATES   PERIOD      1   STEP       98
 -----------------------------------------------
   NUMBER   CELLID                    RATE      
 -----------------------------------------------
     1      (1,17,17)            -7.14285714E-05
     2      (1,33,17)            -7.14285714E-05
     3      (1,9,26)             -7.14285714E-05
     4      (1,17,35)            -7.14285714E-05
     5      (1,33,35)            -7.14285714E-05
     6      (1,26,26)            -7.14285714E-05
     7      (1,41,26)            -7.14285714E-05
 -----------------------------------------------




 WEL PACKAGE (WEL2) FLOW RATES   PERIOD      1   STEP       98
 -----------------------------------------------
   NUMBER   CELLID                    RATE      
 -----------------------------------------------
     1      (1,17,26)             2.50000000E-04
     2      (1,33,26)             2.50000000E-04
 -----------------------------------------------




 HEAD WILL BE SAVED ON UNIT 1028 AT END OF TIME STEP   98, STRESS PERIOD    1


  VOLUME BUDGET FOR ENTIRE MODEL AT END OF TIME STEP   98, STRESS PERIOD   1
  ---------------------------------------------------------------------------------------------------

     CUMULATIVE VOLUME      L**3       RATES FOR THIS TIME STEP      L**3/T          PACKAGE NAME    
     ------------------                 ------------------------                     ----------------

           IN:                                      IN:
           ---                                      ---
              STO-SS =           0.0000                STO-SS =           0.0000     STORAGE                          
                 WEL =           0.0000                   WEL =           0.0000     WEL1                             
                 WEL =       9.8000E-02                   WEL =       5.0000E-04     WEL2                             

            TOTAL IN =       9.8000E-02              TOTAL IN =       5.0000E-04

          OUT:                                     OUT:
          ----                                     ----
              STO-SS =           0.0000                STO-SS =           0.0000     STORAGE                          
                 WEL =       9.8000E-02                   WEL =       5.0000E-04     WEL1                             
                 WEL =           0.0000                   WEL =           0.0000     WEL2                             

           TOTAL OUT =       9.8000E-02             TOTAL OUT =       5.0000E-04

            IN - OUT =       3.9200E-11              IN - OUT =       2.0000E-13

 PERCENT DISCREPANCY =           0.00     PERCENT DISCREPANCY =           0.00




         TIME SUMMARY AT END OF TIME STEP   98 IN STRESS PERIOD    1
                    SECONDS     MINUTES      HOURS       DAYS        YEARS
                    -----------------------------------------------------------
   TIME STEP LENGTH 1.72800E+05  2880.0      48.000      2.0000     5.47570E-03
 STRESS PERIOD TIME 1.69344E+07 2.82240E+05  4704.0      196.00     0.53662    
         TOTAL TIME 1.69344E+07 2.82240E+05  4704.0      196.00     0.53662    


end timestep


start timestep kper="1" kstp="99" mode="normal"

 UBDSV1 SAVING           STO-SS ON UNIT   1027 AT TIME STEP     99, STRESS PERIOD      1
 UBDSV1 SAVING     FLOW-JA-FACE ON UNIT   1027 AT TIME STEP     99, STRESS PERIOD      1

 WEL PACKAGE (WEL1) FLOW RATES   PERIOD      1   STEP       99
 -----------------------------------------------
   NUMBER   CELLID                    RATE      
 -----------------------------------------------
     1      (1,17,17)            -7.14285714E-05
     2      (1,33,17)            -7.14285714E-05
     3      (1,9,26)             -7.14285714E-05
     4      (1,17,35)            -7.14285714E-05
     5      (1,33,35)            -7.14285714E-05
     6      (1,26,26)            -7.14285714E-05
     7      (1,41,26)            -7.14285714E-05
 -----------------------------------------------




 WEL PACKAGE (WEL2) FLOW RATES   PERIOD      1   STEP       99
 -----------------------------------------------
   NUMBER   CELLID                    RATE      
 -----------------------------------------------
     1      (1,17,26)             2.50000000E-04
     2      (1,33,26)             2.50000000E-04
 -----------------------------------------------




 HEAD WILL BE SAVED ON UNIT 1028 AT END OF TIME STEP   99, STRESS PERIOD    1


  VOLUME BUDGET FOR ENTIRE MODEL AT END OF TIME STEP   99, STRESS PERIOD   1
  ---------------------------------------------------------------------------------------------------

     CUMULATIVE VOLUME      L**3       RATES FOR THIS TIME STEP      L**3/T          PACKAGE NAME    
     ------------------                 ------------------------                     ----------------

           IN:                                      IN:
           ---                                      ---
              STO-SS =           0.0000                STO-SS =           0.0000     STORAGE                          
                 WEL =           0.0000                   WEL =           0.0000     WEL1                             
                 WEL =       9.9000E-02                   WEL =       5.0000E-04     WEL2                             

            TOTAL IN =       9.9000E-02              TOTAL IN =       5.0000E-04

          OUT:                                     OUT:
          ----                                     ----
              STO-SS =           0.0000                STO-SS =           0.0000     STORAGE                          
                 WEL =       9.9000E-02                   WEL =       5.0000E-04     WEL1                             
                 WEL =           0.0000                   WEL =           0.0000     WEL2                             

           TOTAL OUT =       9.9000E-02             TOTAL OUT =       5.0000E-04

            IN - OUT =       3.9600E-11              IN - OUT =       2.0000E-13

 PERCENT DISCREPANCY =           0.00     PERCENT DISCREPANCY =           0.00




         TIME SUMMARY AT END OF TIME STEP   99 IN STRESS PERIOD    1
                    SECONDS     MINUTES      HOURS       DAYS        YEARS
                    -----------------------------------------------------------
   TIME STEP LENGTH 1.72800E+05  2880.0      48.000      2.0000     5.47570E-03
 STRESS PERIOD TIME 1.71072E+07 2.85120E+05  4752.0      198.00     0.54209    
         TOTAL TIME 1.71072E+07 2.85120E+05  4752.0      198.00     0.54209    


end timestep


start timestep kper="1" kstp="100" mode="normal"

 UBDSV1 SAVING           STO-SS ON UNIT   1027 AT TIME STEP    100, STRESS PERIOD      1
 UBDSV1 SAVING     FLOW-JA-FACE ON UNIT   1027 AT TIME STEP    100, STRESS PERIOD      1

 WEL PACKAGE (WEL1) FLOW RATES   PERIOD      1   STEP      100
 -----------------------------------------------
   NUMBER   CELLID                    RATE      
 -----------------------------------------------
     1      (1,17,17)            -7.14285714E-05
     2      (1,33,17)            -7.14285714E-05
     3      (1,9,26)             -7.14285714E-05
     4      (1,17,35)            -7.14285714E-05
     5      (1,33,35)            -7.14285714E-05
     6      (1,26,26)            -7.14285714E-05
     7      (1,41,26)            -7.14285714E-05
 -----------------------------------------------




 WEL PACKAGE (WEL2) FLOW RATES   PERIOD      1   STEP      100
 -----------------------------------------------
   NUMBER   CELLID                    RATE      
 -----------------------------------------------
     1      (1,17,26)             2.50000000E-04
     2      (1,33,26)             2.50000000E-04
 -----------------------------------------------




 HEAD WILL BE SAVED ON UNIT 1028 AT END OF TIME STEP  100, STRESS PERIOD    1


  VOLUME BUDGET FOR ENTIRE MODEL AT END OF TIME STEP  100, STRESS PERIOD   1
  ---------------------------------------------------------------------------------------------------

     CUMULATIVE VOLUME      L**3       RATES FOR THIS TIME STEP      L**3/T          PACKAGE NAME    
     ------------------                 ------------------------                     ----------------

           IN:                                      IN:
           ---                                      ---
              STO-SS =           0.0000                STO-SS =           0.0000     STORAGE                          
                 WEL =           0.0000                   WEL =           0.0000     WEL1                             
                 WEL =           0.1000                   WEL =       5.0000E-04     WEL2                             

            TOTAL IN =           0.1000              TOTAL IN =       5.0000E-04

          OUT:                                     OUT:
          ----                                     ----
              STO-SS =           0.0000                STO-SS =           0.0000     STORAGE                          
                 WEL =       1.0000E-01                   WEL =       5.0000E-04     WEL1                             
                 WEL =           0.0000                   WEL =           0.0000     WEL2                             

           TOTAL OUT =       1.0000E-01             TOTAL OUT =       5.0000E-04

            IN - OUT =       4.0000E-11              IN - OUT =       2.0000E-13

 PERCENT DISCREPANCY =           0.00     PERCENT DISCREPANCY =           0.00




         TIME SUMMARY AT END OF TIME STEP  100 IN STRESS PERIOD    1
                    SECONDS     MINUTES      HOURS       DAYS        YEARS
                    -----------------------------------------------------------
   TIME STEP LENGTH 1.72800E+05  2880.0      48.000      2.0000     5.47570E-03
 STRESS PERIOD TIME 1.72800E+07 2.88000E+05  4800.0      200.00     0.54757    
         TOTAL TIME 1.72800E+07 2.88000E+05  4800.0      200.00     0.54757    


end timestep


start timestep kper="2" kstp="1" mode="normal"


 END OF FILE DETECTED IN OUTPUT CONTROL.
 CURRENT OUTPUT CONTROL SETTINGS WILL BE 
 REPEATED UNTIL THE END OF THE SIMULATION.

 OUTPUT CONTROL FOR STRESS PERIOD 2 IS REPEATED USING SETTINGS FROM A PREVIOUS STRESS PERIOD.


 STRESS PERIOD 2 IS TRANSIENT

 --------------------------------------------------------------------
  WEL NO.    LAYER    ROW     COL     STRESS RATE     CONCENTRATION  
 --------------------------------------------------------------------
     1         1      17      17    -5.000000000E-05  0.00000000     
     2         1      33      17    -5.000000000E-05  0.00000000     
     3         1       9      26    -5.000000000E-05  0.00000000     
     4         1      17      35    -5.000000000E-05  0.00000000     
     5         1      33      35    -5.000000000E-05  0.00000000     
     6         1      26      26    -5.000000000E-05  0.00000000     
     7         1      41      26    -5.000000000E-05  0.00000000     
     8         1       4      39    -5.000000000E-05  0.00000000     
     9         1      27       3    -5.000000000E-05  0.00000000     
     10        1      46      46    -5.000000000E-05  0.00000000     
 --------------------------------------------------------------------


 --------------------------------------------------------------------
  WEL NO.    LAYER    ROW     COL     STRESS RATE     CONCENTRATION  
 --------------------------------------------------------------------
     1         1      17      26     2.500000000E-04  1.00000000     
     2         1      33      26     2.500000000E-04  1.00000000     
 --------------------------------------------------------------------


 UBDSV1 SAVING           STO-SS ON UNIT   1027 AT TIME STEP      1, STRESS PERIOD      2
 UBDSV1 SAVING     FLOW-JA-FACE ON UNIT   1027 AT TIME STEP      1, STRESS PERIOD      2

 WEL PACKAGE (WEL1) FLOW RATES   PERIOD      2   STEP        1
 -----------------------------------------------
   NUMBER   CELLID                    RATE      
 -----------------------------------------------
     1      (1,17,17)            -5.00000000E-05
     2      (1,33,17)            -5.00000000E-05
     3      (1,9,26)             -5.00000000E-05
     4      (1,17,35)            -5.00000000E-05
     5      (1,33,35)            -5.00000000E-05
     6      (1,26,26)            -5.00000000E-05
     7      (1,41,26)            -5.00000000E-05
     8      (1,4,39)             -5.00000000E-05
     9      (1,27,3)             -5.00000000E-05
     10     (1,46,46)            -5.00000000E-05
 -----------------------------------------------




 WEL PACKAGE (WEL2) FLOW RATES   PERIOD      2   STEP        1
 -----------------------------------------------
   NUMBER   CELLID                    RATE      
 -----------------------------------------------
     1      (1,17,26)             2.50000000E-04
     2      (1,33,26)             2.50000000E-04
 -----------------------------------------------




 HEAD WILL BE SAVED ON UNIT 1028 AT END OF TIME STEP    1, STRESS PERIOD    2


  VOLUME BUDGET FOR ENTIRE MODEL AT END OF TIME STEP    1, STRESS PERIOD   2
  ---------------------------------------------------------------------------------------------------

     CUMULATIVE VOLUME      L**3       RATES FOR THIS TIME STEP      L**3/T          PACKAGE NAME    
     ------------------                 ------------------------                     ----------------

           IN:                                      IN:
           ---                                      ---
              STO-SS =           0.0000                STO-SS =           0.0000     STORAGE                          
                 WEL =           0.0000                   WEL =           0.0000     WEL1                             
                 WEL =           0.1010                   WEL =       5.0000E-04     WEL2                             

            TOTAL IN =           0.1010              TOTAL IN =       5.0000E-04

          OUT:                                     OUT:
          ----                                     ----
              STO-SS =           0.0000                STO-SS =           0.0000     STORAGE                          
                 WEL =           0.1010                   WEL =       5.0000E-04     WEL1                             
                 WEL =           0.0000                   WEL =           0.0000     WEL2                             

           TOTAL OUT =           0.1010             TOTAL OUT =       5.0000E-04

            IN - OUT =       4.0000E-11              IN - OUT =      -1.0842E-19

 PERCENT DISCREPANCY =           0.00     PERCENT DISCREPANCY =          -0.00




         TIME SUMMARY AT END OF TIME STEP    1 IN STRESS PERIOD    2
                    SECONDS     MINUTES      HOURS       DAYS        YEARS
                    -----------------------------------------------------------
   TIME STEP LENGTH 1.72800E+05  2880.0      48.000      2.0000     5.47570E-03
 STRESS PERIOD TIME 1.72800E+05  2880.0      48.000      2.0000     5.47570E-03
         TOTAL TIME 1.74528E+07 2.90880E+05  4848.0      202.00     0.55305    


end timestep


start timestep kper="2" kstp="2" mode="normal"

 UBDSV1 SAVING           STO-SS ON UNIT   1027 AT TIME STEP      2, STRESS PERIOD      2
 UBDSV1 SAVING     FLOW-JA-FACE ON UNIT   1027 AT TIME STEP      2, STRESS PERIOD      2

 WEL PACKAGE (WEL1) FLOW RATES   PERIOD      2   STEP        2
 -----------------------------------------------
   NUMBER   CELLID                    RATE      
 -----------------------------------------------
     1      (1,17,17)            -5.00000000E-05
     2      (1,33,17)            -5.00000000E-05
     3      (1,9,26)             -5.00000000E-05
     4      (1,17,35)            -5.00000000E-05
     5      (1,33,35)            -5.00000000E-05
     6      (1,26,26)            -5.00000000E-05
     7      (1,41,26)            -5.00000000E-05
     8      (1,4,39)             -5.00000000E-05
     9      (1,27,3)             -5.00000000E-05
     10     (1,46,46)            -5.00000000E-05
 -----------------------------------------------




 WEL PACKAGE (WEL2) FLOW RATES   PERIOD      2   STEP        2
 -----------------------------------------------
   NUMBER   CELLID                    RATE      
 -----------------------------------------------
     1      (1,17,26)             2.50000000E-04
     2      (1,33,26)             2.50000000E-04
 -----------------------------------------------




 HEAD WILL BE SAVED ON UNIT 1028 AT END OF TIME STEP    2, STRESS PERIOD    2


  VOLUME BUDGET FOR ENTIRE MODEL AT END OF TIME STEP    2, STRESS PERIOD   2
  ---------------------------------------------------------------------------------------------------

     CUMULATIVE VOLUME      L**3       RATES FOR THIS TIME STEP      L**3/T          PACKAGE NAME    
     ------------------                 ------------------------                     ----------------

           IN:                                      IN:
           ---                                      ---
              STO-SS =           0.0000                STO-SS =           0.0000     STORAGE                          
                 WEL =           0.0000                   WEL =           0.0000     WEL1                             
                 WEL =           0.1020                   WEL =       5.0000E-04     WEL2                             

            TOTAL IN =           0.1020              TOTAL IN =       5.0000E-04

          OUT:                                     OUT:
          ----                                     ----
              STO-SS =           0.0000                STO-SS =           0.0000     STORAGE                          
                 WEL =           0.1020                   WEL =       5.0000E-04     WEL1                             
                 WEL =           0.0000                   WEL =           0.0000     WEL2                             

           TOTAL OUT =           0.1020             TOTAL OUT =       5.0000E-04

            IN - OUT =       4.0000E-11              IN - OUT =      -1.0842E-19

 PERCENT DISCREPANCY =           0.00     PERCENT DISCREPANCY =          -0.00




         TIME SUMMARY AT END OF TIME STEP    2 IN STRESS PERIOD    2
                    SECONDS     MINUTES      HOURS       DAYS        YEARS
                    -----------------------------------------------------------
   TIME STEP LENGTH 1.72800E+05  2880.0      48.000      2.0000     5.47570E-03
 STRESS PERIOD TIME 3.45600E+05  5760.0      96.000      4.0000     1.09514E-02
         TOTAL TIME 1.76256E+07 2.93760E+05  4896.0      204.00     0.55852    


end timestep


start timestep kper="2" kstp="3" mode="normal"

 UBDSV1 SAVING           STO-SS ON UNIT   1027 AT TIME STEP      3, STRESS PERIOD      2
 UBDSV1 SAVING     FLOW-JA-FACE ON UNIT   1027 AT TIME STEP      3, STRESS PERIOD      2

 WEL PACKAGE (WEL1) FLOW RATES   PERIOD      2   STEP        3
 -----------------------------------------------
   NUMBER   CELLID                    RATE      
 -----------------------------------------------
     1      (1,17,17)            -5.00000000E-05
     2      (1,33,17)            -5.00000000E-05
     3      (1,9,26)             -5.00000000E-05
     4      (1,17,35)            -5.00000000E-05
     5      (1,33,35)            -5.00000000E-05
     6      (1,26,26)            -5.00000000E-05
     7      (1,41,26)            -5.00000000E-05
     8      (1,4,39)             -5.00000000E-05
     9      (1,27,3)             -5.00000000E-05
     10     (1,46,46)            -5.00000000E-05
 -----------------------------------------------




 WEL PACKAGE (WEL2) FLOW RATES   PERIOD      2   STEP        3
 -----------------------------------------------
   NUMBER   CELLID                    RATE      
 -----------------------------------------------
     1      (1,17,26)             2.50000000E-04
     2      (1,33,26)             2.50000000E-04
 -----------------------------------------------




 HEAD WILL BE SAVED ON UNIT 1028 AT END OF TIME STEP    3, STRESS PERIOD    2


  VOLUME BUDGET FOR ENTIRE MODEL AT END OF TIME STEP    3, STRESS PERIOD   2
  ---------------------------------------------------------------------------------------------------

     CUMULATIVE VOLUME      L**3       RATES FOR THIS TIME STEP      L**3/T          PACKAGE NAME    
     ------------------                 ------------------------                     ----------------

           IN:                                      IN:
           ---                                      ---
              STO-SS =           0.0000                STO-SS =           0.0000     STORAGE                          
                 WEL =           0.0000                   WEL =           0.0000     WEL1                             
                 WEL =           0.1030                   WEL =       5.0000E-04     WEL2                             

            TOTAL IN =           0.1030              TOTAL IN =       5.0000E-04

          OUT:                                     OUT:
          ----                                     ----
              STO-SS =           0.0000                STO-SS =           0.0000     STORAGE                          
                 WEL =           0.1030                   WEL =       5.0000E-04     WEL1                             
                 WEL =           0.0000                   WEL =           0.0000     WEL2                             

           TOTAL OUT =           0.1030             TOTAL OUT =       5.0000E-04

            IN - OUT =       4.0000E-11              IN - OUT =      -1.0842E-19

 PERCENT DISCREPANCY =           0.00     PERCENT DISCREPANCY =          -0.00




         TIME SUMMARY AT END OF TIME STEP    3 IN STRESS PERIOD    2
                    SECONDS     MINUTES      HOURS       DAYS        YEARS
                    -----------------------------------------------------------
   TIME STEP LENGTH 1.72800E+05  2880.0      48.000      2.0000     5.47570E-03
 STRESS PERIOD TIME 5.18400E+05  8640.0      144.00      6.0000     1.64271E-02
         TOTAL TIME 1.77984E+07 2.96640E+05  4944.0      206.00     0.56400    


end timestep


start timestep kper="2" kstp="4" mode="normal"

 UBDSV1 SAVING           STO-SS ON UNIT   1027 AT TIME STEP      4, STRESS PERIOD      2
 UBDSV1 SAVING     FLOW-JA-FACE ON UNIT   1027 AT TIME STEP      4, STRESS PERIOD      2

 WEL PACKAGE (WEL1) FLOW RATES   PERIOD      2   STEP        4
 -----------------------------------------------
   NUMBER   CELLID                    RATE      
 -----------------------------------------------
     1      (1,17,17)            -5.00000000E-05
     2      (1,33,17)            -5.00000000E-05
     3      (1,9,26)             -5.00000000E-05
     4      (1,17,35)            -5.00000000E-05
     5      (1,33,35)            -5.00000000E-05
     6      (1,26,26)            -5.00000000E-05
     7      (1,41,26)            -5.00000000E-05
     8      (1,4,39)             -5.00000000E-05
     9      (1,27,3)             -5.00000000E-05
     10     (1,46,46)            -5.00000000E-05
 -----------------------------------------------




 WEL PACKAGE (WEL2) FLOW RATES   PERIOD      2   STEP        4
 -----------------------------------------------
   NUMBER   CELLID                    RATE      
 -----------------------------------------------
     1      (1,17,26)             2.50000000E-04
     2      (1,33,26)             2.50000000E-04
 -----------------------------------------------




 HEAD WILL BE SAVED ON UNIT 1028 AT END OF TIME STEP    4, STRESS PERIOD    2


  VOLUME BUDGET FOR ENTIRE MODEL AT END OF TIME STEP    4, STRESS PERIOD   2
  ---------------------------------------------------------------------------------------------------

     CUMULATIVE VOLUME      L**3       RATES FOR THIS TIME STEP      L**3/T          PACKAGE NAME    
     ------------------                 ------------------------                     ----------------

           IN:                                      IN:
           ---                                      ---
              STO-SS =           0.0000                STO-SS =           0.0000     STORAGE                          
                 WEL =           0.0000                   WEL =           0.0000     WEL1                             
                 WEL =           0.1040                   WEL =       5.0000E-04     WEL2                             

            TOTAL IN =           0.1040              TOTAL IN =       5.0000E-04

          OUT:                                     OUT:
          ----                                     ----
              STO-SS =           0.0000                STO-SS =           0.0000     STORAGE                          
                 WEL =           0.1040                   WEL =       5.0000E-04     WEL1                             
                 WEL =           0.0000                   WEL =           0.0000     WEL2                             

           TOTAL OUT =           0.1040             TOTAL OUT =       5.0000E-04

            IN - OUT =       4.0000E-11              IN - OUT =      -1.0842E-19

 PERCENT DISCREPANCY =           0.00     PERCENT DISCREPANCY =          -0.00




         TIME SUMMARY AT END OF TIME STEP    4 IN STRESS PERIOD    2
                    SECONDS     MINUTES      HOURS       DAYS        YEARS
                    -----------------------------------------------------------
   TIME STEP LENGTH 1.72800E+05  2880.0      48.000      2.0000     5.47570E-03
 STRESS PERIOD TIME 6.91200E+05  11520.      192.00      8.0000     2.19028E-02
         TOTAL TIME 1.79712E+07 2.99520E+05  4992.0      208.00     0.56947    


end timestep


start timestep kper="2" kstp="5" mode="normal"

 UBDSV1 SAVING           STO-SS ON UNIT   1027 AT TIME STEP      5, STRESS PERIOD      2
 UBDSV1 SAVING     FLOW-JA-FACE ON UNIT   1027 AT TIME STEP      5, STRESS PERIOD      2

 WEL PACKAGE (WEL1) FLOW RATES   PERIOD      2   STEP        5
 -----------------------------------------------
   NUMBER   CELLID                    RATE      
 -----------------------------------------------
     1      (1,17,17)            -5.00000000E-05
     2      (1,33,17)            -5.00000000E-05
     3      (1,9,26)             -5.00000000E-05
     4      (1,17,35)            -5.00000000E-05
     5      (1,33,35)            -5.00000000E-05
     6      (1,26,26)            -5.00000000E-05
     7      (1,41,26)            -5.00000000E-05
     8      (1,4,39)             -5.00000000E-05
     9      (1,27,3)             -5.00000000E-05
     10     (1,46,46)            -5.00000000E-05
 -----------------------------------------------




 WEL PACKAGE (WEL2) FLOW RATES   PERIOD      2   STEP        5
 -----------------------------------------------
   NUMBER   CELLID                    RATE      
 -----------------------------------------------
     1      (1,17,26)             2.50000000E-04
     2      (1,33,26)             2.50000000E-04
 -----------------------------------------------




 HEAD WILL BE SAVED ON UNIT 1028 AT END OF TIME STEP    5, STRESS PERIOD    2


  VOLUME BUDGET FOR ENTIRE MODEL AT END OF TIME STEP    5, STRESS PERIOD   2
  ---------------------------------------------------------------------------------------------------

     CUMULATIVE VOLUME      L**3       RATES FOR THIS TIME STEP      L**3/T          PACKAGE NAME    
     ------------------                 ------------------------                     ----------------

           IN:                                      IN:
           ---                                      ---
              STO-SS =           0.0000                STO-SS =           0.0000     STORAGE                          
                 WEL =           0.0000                   WEL =           0.0000     WEL1                             
                 WEL =           0.1050                   WEL =       5.0000E-04     WEL2                             

            TOTAL IN =           0.1050              TOTAL IN =       5.0000E-04

          OUT:                                     OUT:
          ----                                     ----
              STO-SS =           0.0000                STO-SS =           0.0000     STORAGE                          
                 WEL =           0.1050                   WEL =       5.0000E-04     WEL1                             
                 WEL =           0.0000                   WEL =           0.0000     WEL2                             

           TOTAL OUT =           0.1050             TOTAL OUT =       5.0000E-04

            IN - OUT =       4.0000E-11              IN - OUT =      -1.0842E-19

 PERCENT DISCREPANCY =           0.00     PERCENT DISCREPANCY =          -0.00




         TIME SUMMARY AT END OF TIME STEP    5 IN STRESS PERIOD    2
                    SECONDS     MINUTES      HOURS       DAYS        YEARS
                    -----------------------------------------------------------
   TIME STEP LENGTH 1.72800E+05  2880.0      48.000      2.0000     5.47570E-03
 STRESS PERIOD TIME 8.64000E+05  14400.      240.00      10.000     2.73785E-02
         TOTAL TIME 1.81440E+07 3.02400E+05  5040.0      210.00     0.57495    


end timestep


start timestep kper="2" kstp="6" mode="normal"

 UBDSV1 SAVING           STO-SS ON UNIT   1027 AT TIME STEP      6, STRESS PERIOD      2
 UBDSV1 SAVING     FLOW-JA-FACE ON UNIT   1027 AT TIME STEP      6, STRESS PERIOD      2

 WEL PACKAGE (WEL1) FLOW RATES   PERIOD      2   STEP        6
 -----------------------------------------------
   NUMBER   CELLID                    RATE      
 -----------------------------------------------
     1      (1,17,17)            -5.00000000E-05
     2      (1,33,17)            -5.00000000E-05
     3      (1,9,26)             -5.00000000E-05
     4      (1,17,35)            -5.00000000E-05
     5      (1,33,35)            -5.00000000E-05
     6      (1,26,26)            -5.00000000E-05
     7      (1,41,26)            -5.00000000E-05
     8      (1,4,39)             -5.00000000E-05
     9      (1,27,3)             -5.00000000E-05
     10     (1,46,46)            -5.00000000E-05
 -----------------------------------------------




 WEL PACKAGE (WEL2) FLOW RATES   PERIOD      2   STEP        6
 -----------------------------------------------
   NUMBER   CELLID                    RATE      
 -----------------------------------------------
     1      (1,17,26)             2.50000000E-04
     2      (1,33,26)             2.50000000E-04
 -----------------------------------------------




 HEAD WILL BE SAVED ON UNIT 1028 AT END OF TIME STEP    6, STRESS PERIOD    2


  VOLUME BUDGET FOR ENTIRE MODEL AT END OF TIME STEP    6, STRESS PERIOD   2
  ---------------------------------------------------------------------------------------------------

     CUMULATIVE VOLUME      L**3       RATES FOR THIS TIME STEP      L**3/T          PACKAGE NAME    
     ------------------                 ------------------------                     ----------------

           IN:                                      IN:
           ---                                      ---
              STO-SS =           0.0000                STO-SS =           0.0000     STORAGE                          
                 WEL =           0.0000                   WEL =           0.0000     WEL1                             
                 WEL =           0.1060                   WEL =       5.0000E-04     WEL2                             

            TOTAL IN =           0.1060              TOTAL IN =       5.0000E-04

          OUT:                                     OUT:
          ----                                     ----
              STO-SS =           0.0000                STO-SS =           0.0000     STORAGE                          
                 WEL =           0.1060                   WEL =       5.0000E-04     WEL1                             
                 WEL =           0.0000                   WEL =           0.0000     WEL2                             

           TOTAL OUT =           0.1060             TOTAL OUT =       5.0000E-04

            IN - OUT =       4.0000E-11              IN - OUT =      -1.0842E-19

 PERCENT DISCREPANCY =           0.00     PERCENT DISCREPANCY =          -0.00




         TIME SUMMARY AT END OF TIME STEP    6 IN STRESS PERIOD    2
                    SECONDS     MINUTES      HOURS       DAYS        YEARS
                    -----------------------------------------------------------
   TIME STEP LENGTH 1.72800E+05  2880.0      48.000      2.0000     5.47570E-03
 STRESS PERIOD TIME 1.03680E+06  17280.      288.00      12.000     3.28542E-02
         TOTAL TIME 1.83168E+07 3.05280E+05  5088.0      212.00     0.58042    


end timestep


start timestep kper="2" kstp="7" mode="normal"

 UBDSV1 SAVING           STO-SS ON UNIT   1027 AT TIME STEP      7, STRESS PERIOD      2
 UBDSV1 SAVING     FLOW-JA-FACE ON UNIT   1027 AT TIME STEP      7, STRESS PERIOD      2

 WEL PACKAGE (WEL1) FLOW RATES   PERIOD      2   STEP        7
 -----------------------------------------------
   NUMBER   CELLID                    RATE      
 -----------------------------------------------
     1      (1,17,17)            -5.00000000E-05
     2      (1,33,17)            -5.00000000E-05
     3      (1,9,26)             -5.00000000E-05
     4      (1,17,35)            -5.00000000E-05
     5      (1,33,35)            -5.00000000E-05
     6      (1,26,26)            -5.00000000E-05
     7      (1,41,26)            -5.00000000E-05
     8      (1,4,39)             -5.00000000E-05
     9      (1,27,3)             -5.00000000E-05
     10     (1,46,46)            -5.00000000E-05
 -----------------------------------------------




 WEL PACKAGE (WEL2) FLOW RATES   PERIOD      2   STEP        7
 -----------------------------------------------
   NUMBER   CELLID                    RATE      
 -----------------------------------------------
     1      (1,17,26)             2.50000000E-04
     2      (1,33,26)             2.50000000E-04
 -----------------------------------------------




 HEAD WILL BE SAVED ON UNIT 1028 AT END OF TIME STEP    7, STRESS PERIOD    2


  VOLUME BUDGET FOR ENTIRE MODEL AT END OF TIME STEP    7, STRESS PERIOD   2
  ---------------------------------------------------------------------------------------------------

     CUMULATIVE VOLUME      L**3       RATES FOR THIS TIME STEP      L**3/T          PACKAGE NAME    
     ------------------                 ------------------------                     ----------------

           IN:                                      IN:
           ---                                      ---
              STO-SS =           0.0000                STO-SS =           0.0000     STORAGE                          
                 WEL =           0.0000                   WEL =           0.0000     WEL1                             
                 WEL =           0.1070                   WEL =       5.0000E-04     WEL2                             

            TOTAL IN =           0.1070              TOTAL IN =       5.0000E-04

          OUT:                                     OUT:
          ----                                     ----
              STO-SS =           0.0000                STO-SS =           0.0000     STORAGE                          
                 WEL =           0.1070                   WEL =       5.0000E-04     WEL1                             
                 WEL =           0.0000                   WEL =           0.0000     WEL2                             

           TOTAL OUT =           0.1070             TOTAL OUT =       5.0000E-04

            IN - OUT =       4.0000E-11              IN - OUT =      -1.0842E-19

 PERCENT DISCREPANCY =           0.00     PERCENT DISCREPANCY =          -0.00




         TIME SUMMARY AT END OF TIME STEP    7 IN STRESS PERIOD    2
                    SECONDS     MINUTES      HOURS       DAYS        YEARS
                    -----------------------------------------------------------
   TIME STEP LENGTH 1.72800E+05  2880.0      48.000      2.0000     5.47570E-03
 STRESS PERIOD TIME 1.20960E+06  20160.      336.00      14.000     3.83299E-02
         TOTAL TIME 1.84896E+07 3.08160E+05  5136.0      214.00     0.58590    


end timestep


start timestep kper="2" kstp="8" mode="normal"

 UBDSV1 SAVING           STO-SS ON UNIT   1027 AT TIME STEP      8, STRESS PERIOD      2
 UBDSV1 SAVING     FLOW-JA-FACE ON UNIT   1027 AT TIME STEP      8, STRESS PERIOD      2

 WEL PACKAGE (WEL1) FLOW RATES   PERIOD      2   STEP        8
 -----------------------------------------------
   NUMBER   CELLID                    RATE      
 -----------------------------------------------
     1      (1,17,17)            -5.00000000E-05
     2      (1,33,17)            -5.00000000E-05
     3      (1,9,26)             -5.00000000E-05
     4      (1,17,35)            -5.00000000E-05
     5      (1,33,35)            -5.00000000E-05
     6      (1,26,26)            -5.00000000E-05
     7      (1,41,26)            -5.00000000E-05
     8      (1,4,39)             -5.00000000E-05
     9      (1,27,3)             -5.00000000E-05
     10     (1,46,46)            -5.00000000E-05
 -----------------------------------------------




 WEL PACKAGE (WEL2) FLOW RATES   PERIOD      2   STEP        8
 -----------------------------------------------
   NUMBER   CELLID                    RATE      
 -----------------------------------------------
     1      (1,17,26)             2.50000000E-04
     2      (1,33,26)             2.50000000E-04
 -----------------------------------------------




 HEAD WILL BE SAVED ON UNIT 1028 AT END OF TIME STEP    8, STRESS PERIOD    2


  VOLUME BUDGET FOR ENTIRE MODEL AT END OF TIME STEP    8, STRESS PERIOD   2
  ---------------------------------------------------------------------------------------------------

     CUMULATIVE VOLUME      L**3       RATES FOR THIS TIME STEP      L**3/T          PACKAGE NAME    
     ------------------                 ------------------------                     ----------------

           IN:                                      IN:
           ---                                      ---
              STO-SS =           0.0000                STO-SS =           0.0000     STORAGE                          
                 WEL =           0.0000                   WEL =           0.0000     WEL1                             
                 WEL =           0.1080                   WEL =       5.0000E-04     WEL2                             

            TOTAL IN =           0.1080              TOTAL IN =       5.0000E-04

          OUT:                                     OUT:
          ----                                     ----
              STO-SS =           0.0000                STO-SS =           0.0000     STORAGE                          
                 WEL =           0.1080                   WEL =       5.0000E-04     WEL1                             
                 WEL =           0.0000                   WEL =           0.0000     WEL2                             

           TOTAL OUT =           0.1080             TOTAL OUT =       5.0000E-04

            IN - OUT =       4.0000E-11              IN - OUT =      -1.0842E-19

 PERCENT DISCREPANCY =           0.00     PERCENT DISCREPANCY =          -0.00




         TIME SUMMARY AT END OF TIME STEP    8 IN STRESS PERIOD    2
                    SECONDS     MINUTES      HOURS       DAYS        YEARS
                    -----------------------------------------------------------
   TIME STEP LENGTH 1.72800E+05  2880.0      48.000      2.0000     5.47570E-03
 STRESS PERIOD TIME 1.38240E+06  23040.      384.00      16.000     4.38056E-02
         TOTAL TIME 1.86624E+07 3.11040E+05  5184.0      216.00     0.59138    


end timestep


start timestep kper="2" kstp="9" mode="normal"

 UBDSV1 SAVING           STO-SS ON UNIT   1027 AT TIME STEP      9, STRESS PERIOD      2
 UBDSV1 SAVING     FLOW-JA-FACE ON UNIT   1027 AT TIME STEP      9, STRESS PERIOD      2

 WEL PACKAGE (WEL1) FLOW RATES   PERIOD      2   STEP        9
 -----------------------------------------------
   NUMBER   CELLID                    RATE      
 -----------------------------------------------
     1      (1,17,17)            -5.00000000E-05
     2      (1,33,17)            -5.00000000E-05
     3      (1,9,26)             -5.00000000E-05
     4      (1,17,35)            -5.00000000E-05
     5      (1,33,35)            -5.00000000E-05
     6      (1,26,26)            -5.00000000E-05
     7      (1,41,26)            -5.00000000E-05
     8      (1,4,39)             -5.00000000E-05
     9      (1,27,3)             -5.00000000E-05
     10     (1,46,46)            -5.00000000E-05
 -----------------------------------------------




 WEL PACKAGE (WEL2) FLOW RATES   PERIOD      2   STEP        9
 -----------------------------------------------
   NUMBER   CELLID                    RATE      
 -----------------------------------------------
     1      (1,17,26)             2.50000000E-04
     2      (1,33,26)             2.50000000E-04
 -----------------------------------------------




 HEAD WILL BE SAVED ON UNIT 1028 AT END OF TIME STEP    9, STRESS PERIOD    2


  VOLUME BUDGET FOR ENTIRE MODEL AT END OF TIME STEP    9, STRESS PERIOD   2
  ---------------------------------------------------------------------------------------------------

     CUMULATIVE VOLUME      L**3       RATES FOR THIS TIME STEP      L**3/T          PACKAGE NAME    
     ------------------                 ------------------------                     ----------------

           IN:                                      IN:
           ---                                      ---
              STO-SS =           0.0000                STO-SS =           0.0000     STORAGE                          
                 WEL =           0.0000                   WEL =           0.0000     WEL1                             
                 WEL =           0.1090                   WEL =       5.0000E-04     WEL2                             

            TOTAL IN =           0.1090              TOTAL IN =       5.0000E-04

          OUT:                                     OUT:
          ----                                     ----
              STO-SS =           0.0000                STO-SS =           0.0000     STORAGE                          
                 WEL =           0.1090                   WEL =       5.0000E-04     WEL1                             
                 WEL =           0.0000                   WEL =           0.0000     WEL2                             

           TOTAL OUT =           0.1090             TOTAL OUT =       5.0000E-04

            IN - OUT =       4.0000E-11              IN - OUT =      -1.0842E-19

 PERCENT DISCREPANCY =           0.00     PERCENT DISCREPANCY =          -0.00




         TIME SUMMARY AT END OF TIME STEP    9 IN STRESS PERIOD    2
                    SECONDS     MINUTES      HOURS       DAYS        YEARS
                    -----------------------------------------------------------
   TIME STEP LENGTH 1.72800E+05  2880.0      48.000      2.0000     5.47570E-03
 STRESS PERIOD TIME 1.55520E+06  25920.      432.00      18.000     4.92813E-02
         TOTAL TIME 1.88352E+07 3.13920E+05  5232.0      218.00     0.59685    


end timestep


start timestep kper="2" kstp="10" mode="normal"

 UBDSV1 SAVING           STO-SS ON UNIT   1027 AT TIME STEP     10, STRESS PERIOD      2
 UBDSV1 SAVING     FLOW-JA-FACE ON UNIT   1027 AT TIME STEP     10, STRESS PERIOD      2

 WEL PACKAGE (WEL1) FLOW RATES   PERIOD      2   STEP       10
 -----------------------------------------------
   NUMBER   CELLID                    RATE      
 -----------------------------------------------
     1      (1,17,17)            -5.00000000E-05
     2      (1,33,17)            -5.00000000E-05
     3      (1,9,26)             -5.00000000E-05
     4      (1,17,35)            -5.00000000E-05
     5      (1,33,35)            -5.00000000E-05
     6      (1,26,26)            -5.00000000E-05
     7      (1,41,26)            -5.00000000E-05
     8      (1,4,39)             -5.00000000E-05
     9      (1,27,3)             -5.00000000E-05
     10     (1,46,46)            -5.00000000E-05
 -----------------------------------------------




 WEL PACKAGE (WEL2) FLOW RATES   PERIOD      2   STEP       10
 -----------------------------------------------
   NUMBER   CELLID                    RATE      
 -----------------------------------------------
     1      (1,17,26)             2.50000000E-04
     2      (1,33,26)             2.50000000E-04
 -----------------------------------------------




 HEAD WILL BE SAVED ON UNIT 1028 AT END OF TIME STEP   10, STRESS PERIOD    2


  VOLUME BUDGET FOR ENTIRE MODEL AT END OF TIME STEP   10, STRESS PERIOD   2
  ---------------------------------------------------------------------------------------------------

     CUMULATIVE VOLUME      L**3       RATES FOR THIS TIME STEP      L**3/T          PACKAGE NAME    
     ------------------                 ------------------------                     ----------------

           IN:                                      IN:
           ---                                      ---
              STO-SS =           0.0000                STO-SS =           0.0000     STORAGE                          
                 WEL =           0.0000                   WEL =           0.0000     WEL1                             
                 WEL =           0.1100                   WEL =       5.0000E-04     WEL2                             

            TOTAL IN =           0.1100              TOTAL IN =       5.0000E-04

          OUT:                                     OUT:
          ----                                     ----
              STO-SS =           0.0000                STO-SS =           0.0000     STORAGE                          
                 WEL =           0.1100                   WEL =       5.0000E-04     WEL1                             
                 WEL =           0.0000                   WEL =           0.0000     WEL2                             

           TOTAL OUT =           0.1100             TOTAL OUT =       5.0000E-04

            IN - OUT =       4.0000E-11              IN - OUT =      -1.0842E-19

 PERCENT DISCREPANCY =           0.00     PERCENT DISCREPANCY =          -0.00




         TIME SUMMARY AT END OF TIME STEP   10 IN STRESS PERIOD    2
                    SECONDS     MINUTES      HOURS       DAYS        YEARS
                    -----------------------------------------------------------
   TIME STEP LENGTH 1.72800E+05  2880.0      48.000      2.0000     5.47570E-03
 STRESS PERIOD TIME 1.72800E+06  28800.      480.00      20.000     5.47570E-02
         TOTAL TIME 1.90080E+07 3.16800E+05  5280.0      220.00     0.60233    


end timestep


start timestep kper="2" kstp="11" mode="normal"

 UBDSV1 SAVING           STO-SS ON UNIT   1027 AT TIME STEP     11, STRESS PERIOD      2
 UBDSV1 SAVING     FLOW-JA-FACE ON UNIT   1027 AT TIME STEP     11, STRESS PERIOD      2

 WEL PACKAGE (WEL1) FLOW RATES   PERIOD      2   STEP       11
 -----------------------------------------------
   NUMBER   CELLID                    RATE      
 -----------------------------------------------
     1      (1,17,17)            -5.00000000E-05
     2      (1,33,17)            -5.00000000E-05
     3      (1,9,26)             -5.00000000E-05
     4      (1,17,35)            -5.00000000E-05
     5      (1,33,35)            -5.00000000E-05
     6      (1,26,26)            -5.00000000E-05
     7      (1,41,26)            -5.00000000E-05
     8      (1,4,39)             -5.00000000E-05
     9      (1,27,3)             -5.00000000E-05
     10     (1,46,46)            -5.00000000E-05
 -----------------------------------------------




 WEL PACKAGE (WEL2) FLOW RATES   PERIOD      2   STEP       11
 -----------------------------------------------
   NUMBER   CELLID                    RATE      
 -----------------------------------------------
     1      (1,17,26)             2.50000000E-04
     2      (1,33,26)             2.50000000E-04
 -----------------------------------------------




 HEAD WILL BE SAVED ON UNIT 1028 AT END OF TIME STEP   11, STRESS PERIOD    2


  VOLUME BUDGET FOR ENTIRE MODEL AT END OF TIME STEP   11, STRESS PERIOD   2
  ---------------------------------------------------------------------------------------------------

     CUMULATIVE VOLUME      L**3       RATES FOR THIS TIME STEP      L**3/T          PACKAGE NAME    
     ------------------                 ------------------------                     ----------------

           IN:                                      IN:
           ---                                      ---
              STO-SS =           0.0000                STO-SS =           0.0000     STORAGE                          
                 WEL =           0.0000                   WEL =           0.0000     WEL1                             
                 WEL =           0.1110                   WEL =       5.0000E-04     WEL2                             

            TOTAL IN =           0.1110              TOTAL IN =       5.0000E-04

          OUT:                                     OUT:
          ----                                     ----
              STO-SS =           0.0000                STO-SS =           0.0000     STORAGE                          
                 WEL =           0.1110                   WEL =       5.0000E-04     WEL1                             
                 WEL =           0.0000                   WEL =           0.0000     WEL2                             

           TOTAL OUT =           0.1110             TOTAL OUT =       5.0000E-04

            IN - OUT =       4.0000E-11              IN - OUT =      -1.0842E-19

 PERCENT DISCREPANCY =           0.00     PERCENT DISCREPANCY =          -0.00




         TIME SUMMARY AT END OF TIME STEP   11 IN STRESS PERIOD    2
                    SECONDS     MINUTES      HOURS       DAYS        YEARS
                    -----------------------------------------------------------
   TIME STEP LENGTH 1.72800E+05  2880.0      48.000      2.0000     5.47570E-03
 STRESS PERIOD TIME 1.90080E+06  31680.      528.00      22.000     6.02327E-02
         TOTAL TIME 1.91808E+07 3.19680E+05  5328.0      222.00     0.60780    


end timestep


start timestep kper="2" kstp="12" mode="normal"

 UBDSV1 SAVING           STO-SS ON UNIT   1027 AT TIME STEP     12, STRESS PERIOD      2
 UBDSV1 SAVING     FLOW-JA-FACE ON UNIT   1027 AT TIME STEP     12, STRESS PERIOD      2

 WEL PACKAGE (WEL1) FLOW RATES   PERIOD      2   STEP       12
 -----------------------------------------------
   NUMBER   CELLID                    RATE      
 -----------------------------------------------
     1      (1,17,17)            -5.00000000E-05
     2      (1,33,17)            -5.00000000E-05
     3      (1,9,26)             -5.00000000E-05
     4      (1,17,35)            -5.00000000E-05
     5      (1,33,35)            -5.00000000E-05
     6      (1,26,26)            -5.00000000E-05
     7      (1,41,26)            -5.00000000E-05
     8      (1,4,39)             -5.00000000E-05
     9      (1,27,3)             -5.00000000E-05
     10     (1,46,46)            -5.00000000E-05
 -----------------------------------------------




 WEL PACKAGE (WEL2) FLOW RATES   PERIOD      2   STEP       12
 -----------------------------------------------
   NUMBER   CELLID                    RATE      
 -----------------------------------------------
     1      (1,17,26)             2.50000000E-04
     2      (1,33,26)             2.50000000E-04
 -----------------------------------------------




 HEAD WILL BE SAVED ON UNIT 1028 AT END OF TIME STEP   12, STRESS PERIOD    2


  VOLUME BUDGET FOR ENTIRE MODEL AT END OF TIME STEP   12, STRESS PERIOD   2
  ---------------------------------------------------------------------------------------------------

     CUMULATIVE VOLUME      L**3       RATES FOR THIS TIME STEP      L**3/T          PACKAGE NAME    
     ------------------                 ------------------------                     ----------------

           IN:                                      IN:
           ---                                      ---
              STO-SS =           0.0000                STO-SS =           0.0000     STORAGE                          
                 WEL =           0.0000                   WEL =           0.0000     WEL1                             
                 WEL =           0.1120                   WEL =       5.0000E-04     WEL2                             

            TOTAL IN =           0.1120              TOTAL IN =       5.0000E-04

          OUT:                                     OUT:
          ----                                     ----
              STO-SS =           0.0000                STO-SS =           0.0000     STORAGE                          
                 WEL =           0.1120                   WEL =       5.0000E-04     WEL1                             
                 WEL =           0.0000                   WEL =           0.0000     WEL2                             

           TOTAL OUT =           0.1120             TOTAL OUT =       5.0000E-04

            IN - OUT =       4.0000E-11              IN - OUT =      -1.0842E-19

 PERCENT DISCREPANCY =           0.00     PERCENT DISCREPANCY =          -0.00




         TIME SUMMARY AT END OF TIME STEP   12 IN STRESS PERIOD    2
                    SECONDS     MINUTES      HOURS       DAYS        YEARS
                    -----------------------------------------------------------
   TIME STEP LENGTH 1.72800E+05  2880.0      48.000      2.0000     5.47570E-03
 STRESS PERIOD TIME 2.07360E+06  34560.      576.00      24.000     6.57084E-02
         TOTAL TIME 1.93536E+07 3.22560E+05  5376.0      224.00     0.61328    


end timestep


start timestep kper="2" kstp="13" mode="normal"

 UBDSV1 SAVING           STO-SS ON UNIT   1027 AT TIME STEP     13, STRESS PERIOD      2
 UBDSV1 SAVING     FLOW-JA-FACE ON UNIT   1027 AT TIME STEP     13, STRESS PERIOD      2

 WEL PACKAGE (WEL1) FLOW RATES   PERIOD      2   STEP       13
 -----------------------------------------------
   NUMBER   CELLID                    RATE      
 -----------------------------------------------
     1      (1,17,17)            -5.00000000E-05
     2      (1,33,17)            -5.00000000E-05
     3      (1,9,26)             -5.00000000E-05
     4      (1,17,35)            -5.00000000E-05
     5      (1,33,35)            -5.00000000E-05
     6      (1,26,26)            -5.00000000E-05
     7      (1,41,26)            -5.00000000E-05
     8      (1,4,39)             -5.00000000E-05
     9      (1,27,3)             -5.00000000E-05
     10     (1,46,46)            -5.00000000E-05
 -----------------------------------------------




 WEL PACKAGE (WEL2) FLOW RATES   PERIOD      2   STEP       13
 -----------------------------------------------
   NUMBER   CELLID                    RATE      
 -----------------------------------------------
     1      (1,17,26)             2.50000000E-04
     2      (1,33,26)             2.50000000E-04
 -----------------------------------------------




 HEAD WILL BE SAVED ON UNIT 1028 AT END OF TIME STEP   13, STRESS PERIOD    2


  VOLUME BUDGET FOR ENTIRE MODEL AT END OF TIME STEP   13, STRESS PERIOD   2
  ---------------------------------------------------------------------------------------------------

     CUMULATIVE VOLUME      L**3       RATES FOR THIS TIME STEP      L**3/T          PACKAGE NAME    
     ------------------                 ------------------------                     ----------------

           IN:                                      IN:
           ---                                      ---
              STO-SS =           0.0000                STO-SS =           0.0000     STORAGE                          
                 WEL =           0.0000                   WEL =           0.0000     WEL1                             
                 WEL =           0.1130                   WEL =       5.0000E-04     WEL2                             

            TOTAL IN =           0.1130              TOTAL IN =       5.0000E-04

          OUT:                                     OUT:
          ----                                     ----
              STO-SS =           0.0000                STO-SS =           0.0000     STORAGE                          
                 WEL =           0.1130                   WEL =       5.0000E-04     WEL1                             
                 WEL =           0.0000                   WEL =           0.0000     WEL2                             

           TOTAL OUT =           0.1130             TOTAL OUT =       5.0000E-04

            IN - OUT =       4.0000E-11              IN - OUT =      -1.0842E-19

 PERCENT DISCREPANCY =           0.00     PERCENT DISCREPANCY =          -0.00




         TIME SUMMARY AT END OF TIME STEP   13 IN STRESS PERIOD    2
                    SECONDS     MINUTES      HOURS       DAYS        YEARS
                    -----------------------------------------------------------
   TIME STEP LENGTH 1.72800E+05  2880.0      48.000      2.0000     5.47570E-03
 STRESS PERIOD TIME 2.24640E+06  37440.      624.00      26.000     7.11841E-02
         TOTAL TIME 1.95264E+07 3.25440E+05  5424.0      226.00     0.61875    


end timestep


start timestep kper="2" kstp="14" mode="normal"

 UBDSV1 SAVING           STO-SS ON UNIT   1027 AT TIME STEP     14, STRESS PERIOD      2
 UBDSV1 SAVING     FLOW-JA-FACE ON UNIT   1027 AT TIME STEP     14, STRESS PERIOD      2

 WEL PACKAGE (WEL1) FLOW RATES   PERIOD      2   STEP       14
 -----------------------------------------------
   NUMBER   CELLID                    RATE      
 -----------------------------------------------
     1      (1,17,17)            -5.00000000E-05
     2      (1,33,17)            -5.00000000E-05
     3      (1,9,26)             -5.00000000E-05
     4      (1,17,35)            -5.00000000E-05
     5      (1,33,35)            -5.00000000E-05
     6      (1,26,26)            -5.00000000E-05
     7      (1,41,26)            -5.00000000E-05
     8      (1,4,39)             -5.00000000E-05
     9      (1,27,3)             -5.00000000E-05
     10     (1,46,46)            -5.00000000E-05
 -----------------------------------------------




 WEL PACKAGE (WEL2) FLOW RATES   PERIOD      2   STEP       14
 -----------------------------------------------
   NUMBER   CELLID                    RATE      
 -----------------------------------------------
     1      (1,17,26)             2.50000000E-04
     2      (1,33,26)             2.50000000E-04
 -----------------------------------------------




 HEAD WILL BE SAVED ON UNIT 1028 AT END OF TIME STEP   14, STRESS PERIOD    2


  VOLUME BUDGET FOR ENTIRE MODEL AT END OF TIME STEP   14, STRESS PERIOD   2
  ---------------------------------------------------------------------------------------------------

     CUMULATIVE VOLUME      L**3       RATES FOR THIS TIME STEP      L**3/T          PACKAGE NAME    
     ------------------                 ------------------------                     ----------------

           IN:                                      IN:
           ---                                      ---
              STO-SS =           0.0000                STO-SS =           0.0000     STORAGE                          
                 WEL =           0.0000                   WEL =           0.0000     WEL1                             
                 WEL =           0.1140                   WEL =       5.0000E-04     WEL2                             

            TOTAL IN =           0.1140              TOTAL IN =       5.0000E-04

          OUT:                                     OUT:
          ----                                     ----
              STO-SS =           0.0000                STO-SS =           0.0000     STORAGE                          
                 WEL =           0.1140                   WEL =       5.0000E-04     WEL1                             
                 WEL =           0.0000                   WEL =           0.0000     WEL2                             

           TOTAL OUT =           0.1140             TOTAL OUT =       5.0000E-04

            IN - OUT =       4.0000E-11              IN - OUT =      -1.0842E-19

 PERCENT DISCREPANCY =           0.00     PERCENT DISCREPANCY =          -0.00




         TIME SUMMARY AT END OF TIME STEP   14 IN STRESS PERIOD    2
                    SECONDS     MINUTES      HOURS       DAYS        YEARS
                    -----------------------------------------------------------
   TIME STEP LENGTH 1.72800E+05  2880.0      48.000      2.0000     5.47570E-03
 STRESS PERIOD TIME 2.41920E+06  40320.      672.00      28.000     7.66598E-02
         TOTAL TIME 1.96992E+07 3.28320E+05  5472.0      228.00     0.62423    


end timestep


start timestep kper="2" kstp="15" mode="normal"

 UBDSV1 SAVING           STO-SS ON UNIT   1027 AT TIME STEP     15, STRESS PERIOD      2
 UBDSV1 SAVING     FLOW-JA-FACE ON UNIT   1027 AT TIME STEP     15, STRESS PERIOD      2

 WEL PACKAGE (WEL1) FLOW RATES   PERIOD      2   STEP       15
 -----------------------------------------------
   NUMBER   CELLID                    RATE      
 -----------------------------------------------
     1      (1,17,17)            -5.00000000E-05
     2      (1,33,17)            -5.00000000E-05
     3      (1,9,26)             -5.00000000E-05
     4      (1,17,35)            -5.00000000E-05
     5      (1,33,35)            -5.00000000E-05
     6      (1,26,26)            -5.00000000E-05
     7      (1,41,26)            -5.00000000E-05
     8      (1,4,39)             -5.00000000E-05
     9      (1,27,3)             -5.00000000E-05
     10     (1,46,46)            -5.00000000E-05
 -----------------------------------------------




 WEL PACKAGE (WEL2) FLOW RATES   PERIOD      2   STEP       15
 -----------------------------------------------
   NUMBER   CELLID                    RATE      
 -----------------------------------------------
     1      (1,17,26)             2.50000000E-04
     2      (1,33,26)             2.50000000E-04
 -----------------------------------------------




 HEAD WILL BE SAVED ON UNIT 1028 AT END OF TIME STEP   15, STRESS PERIOD    2


  VOLUME BUDGET FOR ENTIRE MODEL AT END OF TIME STEP   15, STRESS PERIOD   2
  ---------------------------------------------------------------------------------------------------

     CUMULATIVE VOLUME      L**3       RATES FOR THIS TIME STEP      L**3/T          PACKAGE NAME    
     ------------------                 ------------------------                     ----------------

           IN:                                      IN:
           ---                                      ---
              STO-SS =           0.0000                STO-SS =           0.0000     STORAGE                          
                 WEL =           0.0000                   WEL =           0.0000     WEL1                             
                 WEL =           0.1150                   WEL =       5.0000E-04     WEL2                             

            TOTAL IN =           0.1150              TOTAL IN =       5.0000E-04

          OUT:                                     OUT:
          ----                                     ----
              STO-SS =           0.0000                STO-SS =           0.0000     STORAGE                          
                 WEL =           0.1150                   WEL =       5.0000E-04     WEL1                             
                 WEL =           0.0000                   WEL =           0.0000     WEL2                             

           TOTAL OUT =           0.1150             TOTAL OUT =       5.0000E-04

            IN - OUT =       4.0000E-11              IN - OUT =      -1.0842E-19

 PERCENT DISCREPANCY =           0.00     PERCENT DISCREPANCY =          -0.00




         TIME SUMMARY AT END OF TIME STEP   15 IN STRESS PERIOD    2
                    SECONDS     MINUTES      HOURS       DAYS        YEARS
                    -----------------------------------------------------------
   TIME STEP LENGTH 1.72800E+05  2880.0      48.000      2.0000     5.47570E-03
 STRESS PERIOD TIME 2.59200E+06  43200.      720.00      30.000     8.21355E-02
         TOTAL TIME 1.98720E+07 3.31200E+05  5520.0      230.00     0.62971    


end timestep


start timestep kper="2" kstp="16" mode="normal"

 UBDSV1 SAVING           STO-SS ON UNIT   1027 AT TIME STEP     16, STRESS PERIOD      2
 UBDSV1 SAVING     FLOW-JA-FACE ON UNIT   1027 AT TIME STEP     16, STRESS PERIOD      2

 WEL PACKAGE (WEL1) FLOW RATES   PERIOD      2   STEP       16
 -----------------------------------------------
   NUMBER   CELLID                    RATE      
 -----------------------------------------------
     1      (1,17,17)            -5.00000000E-05
     2      (1,33,17)            -5.00000000E-05
     3      (1,9,26)             -5.00000000E-05
     4      (1,17,35)            -5.00000000E-05
     5      (1,33,35)            -5.00000000E-05
     6      (1,26,26)            -5.00000000E-05
     7      (1,41,26)            -5.00000000E-05
     8      (1,4,39)             -5.00000000E-05
     9      (1,27,3)             -5.00000000E-05
     10     (1,46,46)            -5.00000000E-05
 -----------------------------------------------




 WEL PACKAGE (WEL2) FLOW RATES   PERIOD      2   STEP       16
 -----------------------------------------------
   NUMBER   CELLID                    RATE      
 -----------------------------------------------
     1      (1,17,26)             2.50000000E-04
     2      (1,33,26)             2.50000000E-04
 -----------------------------------------------




 HEAD WILL BE SAVED ON UNIT 1028 AT END OF TIME STEP   16, STRESS PERIOD    2


  VOLUME BUDGET FOR ENTIRE MODEL AT END OF TIME STEP   16, STRESS PERIOD   2
  ---------------------------------------------------------------------------------------------------

     CUMULATIVE VOLUME      L**3       RATES FOR THIS TIME STEP      L**3/T          PACKAGE NAME    
     ------------------                 ------------------------                     ----------------

           IN:                                      IN:
           ---                                      ---
              STO-SS =           0.0000                STO-SS =           0.0000     STORAGE                          
                 WEL =           0.0000                   WEL =           0.0000     WEL1                             
                 WEL =           0.1160                   WEL =       5.0000E-04     WEL2                             

            TOTAL IN =           0.1160              TOTAL IN =       5.0000E-04

          OUT:                                     OUT:
          ----                                     ----
              STO-SS =           0.0000                STO-SS =           0.0000     STORAGE                          
                 WEL =           0.1160                   WEL =       5.0000E-04     WEL1                             
                 WEL =           0.0000                   WEL =           0.0000     WEL2                             

           TOTAL OUT =           0.1160             TOTAL OUT =       5.0000E-04

            IN - OUT =       4.0000E-11              IN - OUT =      -1.0842E-19

 PERCENT DISCREPANCY =           0.00     PERCENT DISCREPANCY =          -0.00




         TIME SUMMARY AT END OF TIME STEP   16 IN STRESS PERIOD    2
                    SECONDS     MINUTES      HOURS       DAYS        YEARS
                    -----------------------------------------------------------
   TIME STEP LENGTH 1.72800E+05  2880.0      48.000      2.0000     5.47570E-03
 STRESS PERIOD TIME 2.76480E+06  46080.      768.00      32.000     8.76112E-02
         TOTAL TIME 2.00448E+07 3.34080E+05  5568.0      232.00     0.63518    


end timestep


start timestep kper="2" kstp="17" mode="normal"

 UBDSV1 SAVING           STO-SS ON UNIT   1027 AT TIME STEP     17, STRESS PERIOD      2
 UBDSV1 SAVING     FLOW-JA-FACE ON UNIT   1027 AT TIME STEP     17, STRESS PERIOD      2

 WEL PACKAGE (WEL1) FLOW RATES   PERIOD      2   STEP       17
 -----------------------------------------------
   NUMBER   CELLID                    RATE      
 -----------------------------------------------
     1      (1,17,17)            -5.00000000E-05
     2      (1,33,17)            -5.00000000E-05
     3      (1,9,26)             -5.00000000E-05
     4      (1,17,35)            -5.00000000E-05
     5      (1,33,35)            -5.00000000E-05
     6      (1,26,26)            -5.00000000E-05
     7      (1,41,26)            -5.00000000E-05
     8      (1,4,39)             -5.00000000E-05
     9      (1,27,3)             -5.00000000E-05
     10     (1,46,46)            -5.00000000E-05
 -----------------------------------------------




 WEL PACKAGE (WEL2) FLOW RATES   PERIOD      2   STEP       17
 -----------------------------------------------
   NUMBER   CELLID                    RATE      
 -----------------------------------------------
     1      (1,17,26)             2.50000000E-04
     2      (1,33,26)             2.50000000E-04
 -----------------------------------------------




 HEAD WILL BE SAVED ON UNIT 1028 AT END OF TIME STEP   17, STRESS PERIOD    2


  VOLUME BUDGET FOR ENTIRE MODEL AT END OF TIME STEP   17, STRESS PERIOD   2
  ---------------------------------------------------------------------------------------------------

     CUMULATIVE VOLUME      L**3       RATES FOR THIS TIME STEP      L**3/T          PACKAGE NAME    
     ------------------                 ------------------------                     ----------------

           IN:                                      IN:
           ---                                      ---
              STO-SS =           0.0000                STO-SS =           0.0000     STORAGE                          
                 WEL =           0.0000                   WEL =           0.0000     WEL1                             
                 WEL =           0.1170                   WEL =       5.0000E-04     WEL2                             

            TOTAL IN =           0.1170              TOTAL IN =       5.0000E-04

          OUT:                                     OUT:
          ----                                     ----
              STO-SS =           0.0000                STO-SS =           0.0000     STORAGE                          
                 WEL =           0.1170                   WEL =       5.0000E-04     WEL1                             
                 WEL =           0.0000                   WEL =           0.0000     WEL2                             

           TOTAL OUT =           0.1170             TOTAL OUT =       5.0000E-04

            IN - OUT =       4.0000E-11              IN - OUT =      -1.0842E-19

 PERCENT DISCREPANCY =           0.00     PERCENT DISCREPANCY =          -0.00




         TIME SUMMARY AT END OF TIME STEP   17 IN STRESS PERIOD    2
                    SECONDS     MINUTES      HOURS       DAYS        YEARS
                    -----------------------------------------------------------
   TIME STEP LENGTH 1.72800E+05  2880.0      48.000      2.0000     5.47570E-03
 STRESS PERIOD TIME 2.93760E+06  48960.      816.00      34.000     9.30869E-02
         TOTAL TIME 2.02176E+07 3.36960E+05  5616.0      234.00     0.64066    


end timestep


start timestep kper="2" kstp="18" mode="normal"

 UBDSV1 SAVING           STO-SS ON UNIT   1027 AT TIME STEP     18, STRESS PERIOD      2
 UBDSV1 SAVING     FLOW-JA-FACE ON UNIT   1027 AT TIME STEP     18, STRESS PERIOD      2

 WEL PACKAGE (WEL1) FLOW RATES   PERIOD      2   STEP       18
 -----------------------------------------------
   NUMBER   CELLID                    RATE      
 -----------------------------------------------
     1      (1,17,17)            -5.00000000E-05
     2      (1,33,17)            -5.00000000E-05
     3      (1,9,26)             -5.00000000E-05
     4      (1,17,35)            -5.00000000E-05
     5      (1,33,35)            -5.00000000E-05
     6      (1,26,26)            -5.00000000E-05
     7      (1,41,26)            -5.00000000E-05
     8      (1,4,39)             -5.00000000E-05
     9      (1,27,3)             -5.00000000E-05
     10     (1,46,46)            -5.00000000E-05
 -----------------------------------------------




 WEL PACKAGE (WEL2) FLOW RATES   PERIOD      2   STEP       18
 -----------------------------------------------
   NUMBER   CELLID                    RATE      
 -----------------------------------------------
     1      (1,17,26)             2.50000000E-04
     2      (1,33,26)             2.50000000E-04
 -----------------------------------------------




 HEAD WILL BE SAVED ON UNIT 1028 AT END OF TIME STEP   18, STRESS PERIOD    2


  VOLUME BUDGET FOR ENTIRE MODEL AT END OF TIME STEP   18, STRESS PERIOD   2
  ---------------------------------------------------------------------------------------------------

     CUMULATIVE VOLUME      L**3       RATES FOR THIS TIME STEP      L**3/T          PACKAGE NAME    
     ------------------                 ------------------------                     ----------------

           IN:                                      IN:
           ---                                      ---
              STO-SS =           0.0000                STO-SS =           0.0000     STORAGE                          
                 WEL =           0.0000                   WEL =           0.0000     WEL1                             
                 WEL =           0.1180                   WEL =       5.0000E-04     WEL2                             

            TOTAL IN =           0.1180              TOTAL IN =       5.0000E-04

          OUT:                                     OUT:
          ----                                     ----
              STO-SS =           0.0000                STO-SS =           0.0000     STORAGE                          
                 WEL =           0.1180                   WEL =       5.0000E-04     WEL1                             
                 WEL =           0.0000                   WEL =           0.0000     WEL2                             

           TOTAL OUT =           0.1180             TOTAL OUT =       5.0000E-04

            IN - OUT =       4.0000E-11              IN - OUT =      -1.0842E-19

 PERCENT DISCREPANCY =           0.00     PERCENT DISCREPANCY =          -0.00




         TIME SUMMARY AT END OF TIME STEP   18 IN STRESS PERIOD    2
                    SECONDS     MINUTES      HOURS       DAYS        YEARS
                    -----------------------------------------------------------
   TIME STEP LENGTH 1.72800E+05  2880.0      48.000      2.0000     5.47570E-03
 STRESS PERIOD TIME 3.11040E+06  51840.      864.00      36.000     9.85626E-02
         TOTAL TIME 2.03904E+07 3.39840E+05  5664.0      236.00     0.64613    


end timestep


start timestep kper="2" kstp="19" mode="normal"

 UBDSV1 SAVING           STO-SS ON UNIT   1027 AT TIME STEP     19, STRESS PERIOD      2
 UBDSV1 SAVING     FLOW-JA-FACE ON UNIT   1027 AT TIME STEP     19, STRESS PERIOD      2

 WEL PACKAGE (WEL1) FLOW RATES   PERIOD      2   STEP       19
 -----------------------------------------------
   NUMBER   CELLID                    RATE      
 -----------------------------------------------
     1      (1,17,17)            -5.00000000E-05
     2      (1,33,17)            -5.00000000E-05
     3      (1,9,26)             -5.00000000E-05
     4      (1,17,35)            -5.00000000E-05
     5      (1,33,35)            -5.00000000E-05
     6      (1,26,26)            -5.00000000E-05
     7      (1,41,26)            -5.00000000E-05
     8      (1,4,39)             -5.00000000E-05
     9      (1,27,3)             -5.00000000E-05
     10     (1,46,46)            -5.00000000E-05
 -----------------------------------------------




 WEL PACKAGE (WEL2) FLOW RATES   PERIOD      2   STEP       19
 -----------------------------------------------
   NUMBER   CELLID                    RATE      
 -----------------------------------------------
     1      (1,17,26)             2.50000000E-04
     2      (1,33,26)             2.50000000E-04
 -----------------------------------------------




 HEAD WILL BE SAVED ON UNIT 1028 AT END OF TIME STEP   19, STRESS PERIOD    2


  VOLUME BUDGET FOR ENTIRE MODEL AT END OF TIME STEP   19, STRESS PERIOD   2
  ---------------------------------------------------------------------------------------------------

     CUMULATIVE VOLUME      L**3       RATES FOR THIS TIME STEP      L**3/T          PACKAGE NAME    
     ------------------                 ------------------------                     ----------------

           IN:                                      IN:
           ---                                      ---
              STO-SS =           0.0000                STO-SS =           0.0000     STORAGE                          
                 WEL =           0.0000                   WEL =           0.0000     WEL1                             
                 WEL =           0.1190                   WEL =       5.0000E-04     WEL2                             

            TOTAL IN =           0.1190              TOTAL IN =       5.0000E-04

          OUT:                                     OUT:
          ----                                     ----
              STO-SS =           0.0000                STO-SS =           0.0000     STORAGE                          
                 WEL =           0.1190                   WEL =       5.0000E-04     WEL1                             
                 WEL =           0.0000                   WEL =           0.0000     WEL2                             

           TOTAL OUT =           0.1190             TOTAL OUT =       5.0000E-04

            IN - OUT =       4.0000E-11              IN - OUT =      -1.0842E-19

 PERCENT DISCREPANCY =           0.00     PERCENT DISCREPANCY =          -0.00




         TIME SUMMARY AT END OF TIME STEP   19 IN STRESS PERIOD    2
                    SECONDS     MINUTES      HOURS       DAYS        YEARS
                    -----------------------------------------------------------
   TIME STEP LENGTH 1.72800E+05  2880.0      48.000      2.0000     5.47570E-03
 STRESS PERIOD TIME 3.28320E+06  54720.      912.00      38.000     0.10404    
         TOTAL TIME 2.05632E+07 3.42720E+05  5712.0      238.00     0.65161    


end timestep


start timestep kper="2" kstp="20" mode="normal"

 UBDSV1 SAVING           STO-SS ON UNIT   1027 AT TIME STEP     20, STRESS PERIOD      2
 UBDSV1 SAVING     FLOW-JA-FACE ON UNIT   1027 AT TIME STEP     20, STRESS PERIOD      2

 WEL PACKAGE (WEL1) FLOW RATES   PERIOD      2   STEP       20
 -----------------------------------------------
   NUMBER   CELLID                    RATE      
 -----------------------------------------------
     1      (1,17,17)            -5.00000000E-05
     2      (1,33,17)            -5.00000000E-05
     3      (1,9,26)             -5.00000000E-05
     4      (1,17,35)            -5.00000000E-05
     5      (1,33,35)            -5.00000000E-05
     6      (1,26,26)            -5.00000000E-05
     7      (1,41,26)            -5.00000000E-05
     8      (1,4,39)             -5.00000000E-05
     9      (1,27,3)             -5.00000000E-05
     10     (1,46,46)            -5.00000000E-05
 -----------------------------------------------




 WEL PACKAGE (WEL2) FLOW RATES   PERIOD      2   STEP       20
 -----------------------------------------------
   NUMBER   CELLID                    RATE      
 -----------------------------------------------
     1      (1,17,26)             2.50000000E-04
     2      (1,33,26)             2.50000000E-04
 -----------------------------------------------




 HEAD WILL BE SAVED ON UNIT 1028 AT END OF TIME STEP   20, STRESS PERIOD    2


  VOLUME BUDGET FOR ENTIRE MODEL AT END OF TIME STEP   20, STRESS PERIOD   2
  ---------------------------------------------------------------------------------------------------

     CUMULATIVE VOLUME      L**3       RATES FOR THIS TIME STEP      L**3/T          PACKAGE NAME    
     ------------------                 ------------------------                     ----------------

           IN:                                      IN:
           ---                                      ---
              STO-SS =           0.0000                STO-SS =           0.0000     STORAGE                          
                 WEL =           0.0000                   WEL =           0.0000     WEL1                             
                 WEL =           0.1200                   WEL =       5.0000E-04     WEL2                             

            TOTAL IN =           0.1200              TOTAL IN =       5.0000E-04

          OUT:                                     OUT:
          ----                                     ----
              STO-SS =           0.0000                STO-SS =           0.0000     STORAGE                          
                 WEL =           0.1200                   WEL =       5.0000E-04     WEL1                             
                 WEL =           0.0000                   WEL =           0.0000     WEL2                             

           TOTAL OUT =           0.1200             TOTAL OUT =       5.0000E-04

            IN - OUT =       4.0000E-11              IN - OUT =      -1.0842E-19

 PERCENT DISCREPANCY =           0.00     PERCENT DISCREPANCY =          -0.00




         TIME SUMMARY AT END OF TIME STEP   20 IN STRESS PERIOD    2
                    SECONDS     MINUTES      HOURS       DAYS        YEARS
                    -----------------------------------------------------------
   TIME STEP LENGTH 1.72800E+05  2880.0      48.000      2.0000     5.47570E-03
 STRESS PERIOD TIME 3.45600E+06  57600.      960.00      40.000     0.10951    
         TOTAL TIME 2.07360E+07 3.45600E+05  5760.0      240.00     0.65708    


end timestep


start timestep kper="2" kstp="21" mode="normal"

 UBDSV1 SAVING           STO-SS ON UNIT   1027 AT TIME STEP     21, STRESS PERIOD      2
 UBDSV1 SAVING     FLOW-JA-FACE ON UNIT   1027 AT TIME STEP     21, STRESS PERIOD      2

 WEL PACKAGE (WEL1) FLOW RATES   PERIOD      2   STEP       21
 -----------------------------------------------
   NUMBER   CELLID                    RATE      
 -----------------------------------------------
     1      (1,17,17)            -5.00000000E-05
     2      (1,33,17)            -5.00000000E-05
     3      (1,9,26)             -5.00000000E-05
     4      (1,17,35)            -5.00000000E-05
     5      (1,33,35)            -5.00000000E-05
     6      (1,26,26)            -5.00000000E-05
     7      (1,41,26)            -5.00000000E-05
     8      (1,4,39)             -5.00000000E-05
     9      (1,27,3)             -5.00000000E-05
     10     (1,46,46)            -5.00000000E-05
 -----------------------------------------------




 WEL PACKAGE (WEL2) FLOW RATES   PERIOD      2   STEP       21
 -----------------------------------------------
   NUMBER   CELLID                    RATE      
 -----------------------------------------------
     1      (1,17,26)             2.50000000E-04
     2      (1,33,26)             2.50000000E-04
 -----------------------------------------------




 HEAD WILL BE SAVED ON UNIT 1028 AT END OF TIME STEP   21, STRESS PERIOD    2


  VOLUME BUDGET FOR ENTIRE MODEL AT END OF TIME STEP   21, STRESS PERIOD   2
  ---------------------------------------------------------------------------------------------------

     CUMULATIVE VOLUME      L**3       RATES FOR THIS TIME STEP      L**3/T          PACKAGE NAME    
     ------------------                 ------------------------                     ----------------

           IN:                                      IN:
           ---                                      ---
              STO-SS =           0.0000                STO-SS =           0.0000     STORAGE                          
                 WEL =           0.0000                   WEL =           0.0000     WEL1                             
                 WEL =           0.1210                   WEL =       5.0000E-04     WEL2                             

            TOTAL IN =           0.1210              TOTAL IN =       5.0000E-04

          OUT:                                     OUT:
          ----                                     ----
              STO-SS =           0.0000                STO-SS =           0.0000     STORAGE                          
                 WEL =           0.1210                   WEL =       5.0000E-04     WEL1                             
                 WEL =           0.0000                   WEL =           0.0000     WEL2                             

           TOTAL OUT =           0.1210             TOTAL OUT =       5.0000E-04

            IN - OUT =       4.0000E-11              IN - OUT =      -1.0842E-19

 PERCENT DISCREPANCY =           0.00     PERCENT DISCREPANCY =          -0.00




         TIME SUMMARY AT END OF TIME STEP   21 IN STRESS PERIOD    2
                    SECONDS     MINUTES      HOURS       DAYS        YEARS
                    -----------------------------------------------------------
   TIME STEP LENGTH 1.72800E+05  2880.0      48.000      2.0000     5.47570E-03
 STRESS PERIOD TIME 3.62880E+06  60480.      1008.0      42.000     0.11499    
         TOTAL TIME 2.09088E+07 3.48480E+05  5808.0      242.00     0.66256    


end timestep


start timestep kper="2" kstp="22" mode="normal"

 UBDSV1 SAVING           STO-SS ON UNIT   1027 AT TIME STEP     22, STRESS PERIOD      2
 UBDSV1 SAVING     FLOW-JA-FACE ON UNIT   1027 AT TIME STEP     22, STRESS PERIOD      2

 WEL PACKAGE (WEL1) FLOW RATES   PERIOD      2   STEP       22
 -----------------------------------------------
   NUMBER   CELLID                    RATE      
 -----------------------------------------------
     1      (1,17,17)            -5.00000000E-05
     2      (1,33,17)            -5.00000000E-05
     3      (1,9,26)             -5.00000000E-05
     4      (1,17,35)            -5.00000000E-05
     5      (1,33,35)            -5.00000000E-05
     6      (1,26,26)            -5.00000000E-05
     7      (1,41,26)            -5.00000000E-05
     8      (1,4,39)             -5.00000000E-05
     9      (1,27,3)             -5.00000000E-05
     10     (1,46,46)            -5.00000000E-05
 -----------------------------------------------




 WEL PACKAGE (WEL2) FLOW RATES   PERIOD      2   STEP       22
 -----------------------------------------------
   NUMBER   CELLID                    RATE      
 -----------------------------------------------
     1      (1,17,26)             2.50000000E-04
     2      (1,33,26)             2.50000000E-04
 -----------------------------------------------




 HEAD WILL BE SAVED ON UNIT 1028 AT END OF TIME STEP   22, STRESS PERIOD    2


  VOLUME BUDGET FOR ENTIRE MODEL AT END OF TIME STEP   22, STRESS PERIOD   2
  ---------------------------------------------------------------------------------------------------

     CUMULATIVE VOLUME      L**3       RATES FOR THIS TIME STEP      L**3/T          PACKAGE NAME    
     ------------------                 ------------------------                     ----------------

           IN:                                      IN:
           ---                                      ---
              STO-SS =           0.0000                STO-SS =           0.0000     STORAGE                          
                 WEL =           0.0000                   WEL =           0.0000     WEL1                             
                 WEL =           0.1220                   WEL =       5.0000E-04     WEL2                             

            TOTAL IN =           0.1220              TOTAL IN =       5.0000E-04

          OUT:                                     OUT:
          ----                                     ----
              STO-SS =           0.0000                STO-SS =           0.0000     STORAGE                          
                 WEL =           0.1220                   WEL =       5.0000E-04     WEL1                             
                 WEL =           0.0000                   WEL =           0.0000     WEL2                             

           TOTAL OUT =           0.1220             TOTAL OUT =       5.0000E-04

            IN - OUT =       4.0000E-11              IN - OUT =      -1.0842E-19

 PERCENT DISCREPANCY =           0.00     PERCENT DISCREPANCY =          -0.00




         TIME SUMMARY AT END OF TIME STEP   22 IN STRESS PERIOD    2
                    SECONDS     MINUTES      HOURS       DAYS        YEARS
                    -----------------------------------------------------------
   TIME STEP LENGTH 1.72800E+05  2880.0      48.000      2.0000     5.47570E-03
 STRESS PERIOD TIME 3.80160E+06  63360.      1056.0      44.000     0.12047    
         TOTAL TIME 2.10816E+07 3.51360E+05  5856.0      244.00     0.66804    


end timestep


start timestep kper="2" kstp="23" mode="normal"

 UBDSV1 SAVING           STO-SS ON UNIT   1027 AT TIME STEP     23, STRESS PERIOD      2
 UBDSV1 SAVING     FLOW-JA-FACE ON UNIT   1027 AT TIME STEP     23, STRESS PERIOD      2

 WEL PACKAGE (WEL1) FLOW RATES   PERIOD      2   STEP       23
 -----------------------------------------------
   NUMBER   CELLID                    RATE      
 -----------------------------------------------
     1      (1,17,17)            -5.00000000E-05
     2      (1,33,17)            -5.00000000E-05
     3      (1,9,26)             -5.00000000E-05
     4      (1,17,35)            -5.00000000E-05
     5      (1,33,35)            -5.00000000E-05
     6      (1,26,26)            -5.00000000E-05
     7      (1,41,26)            -5.00000000E-05
     8      (1,4,39)             -5.00000000E-05
     9      (1,27,3)             -5.00000000E-05
     10     (1,46,46)            -5.00000000E-05
 -----------------------------------------------




 WEL PACKAGE (WEL2) FLOW RATES   PERIOD      2   STEP       23
 -----------------------------------------------
   NUMBER   CELLID                    RATE      
 -----------------------------------------------
     1      (1,17,26)             2.50000000E-04
     2      (1,33,26)             2.50000000E-04
 -----------------------------------------------




 HEAD WILL BE SAVED ON UNIT 1028 AT END OF TIME STEP   23, STRESS PERIOD    2


  VOLUME BUDGET FOR ENTIRE MODEL AT END OF TIME STEP   23, STRESS PERIOD   2
  ---------------------------------------------------------------------------------------------------

     CUMULATIVE VOLUME      L**3       RATES FOR THIS TIME STEP      L**3/T          PACKAGE NAME    
     ------------------                 ------------------------                     ----------------

           IN:                                      IN:
           ---                                      ---
              STO-SS =           0.0000                STO-SS =           0.0000     STORAGE                          
                 WEL =           0.0000                   WEL =           0.0000     WEL1                             
                 WEL =           0.1230                   WEL =       5.0000E-04     WEL2                             

            TOTAL IN =           0.1230              TOTAL IN =       5.0000E-04

          OUT:                                     OUT:
          ----                                     ----
              STO-SS =           0.0000                STO-SS =           0.0000     STORAGE                          
                 WEL =           0.1230                   WEL =       5.0000E-04     WEL1                             
                 WEL =           0.0000                   WEL =           0.0000     WEL2                             

           TOTAL OUT =           0.1230             TOTAL OUT =       5.0000E-04

            IN - OUT =       4.0000E-11              IN - OUT =      -1.0842E-19

 PERCENT DISCREPANCY =           0.00     PERCENT DISCREPANCY =          -0.00




         TIME SUMMARY AT END OF TIME STEP   23 IN STRESS PERIOD    2
                    SECONDS     MINUTES      HOURS       DAYS        YEARS
                    -----------------------------------------------------------
   TIME STEP LENGTH 1.72800E+05  2880.0      48.000      2.0000     5.47570E-03
 STRESS PERIOD TIME 3.97440E+06  66240.      1104.0      46.000     0.12594    
         TOTAL TIME 2.12544E+07 3.54240E+05  5904.0      246.00     0.67351    


end timestep


start timestep kper="2" kstp="24" mode="normal"

 UBDSV1 SAVING           STO-SS ON UNIT   1027 AT TIME STEP     24, STRESS PERIOD      2
 UBDSV1 SAVING     FLOW-JA-FACE ON UNIT   1027 AT TIME STEP     24, STRESS PERIOD      2

 WEL PACKAGE (WEL1) FLOW RATES   PERIOD      2   STEP       24
 -----------------------------------------------
   NUMBER   CELLID                    RATE      
 -----------------------------------------------
     1      (1,17,17)            -5.00000000E-05
     2      (1,33,17)            -5.00000000E-05
     3      (1,9,26)             -5.00000000E-05
     4      (1,17,35)            -5.00000000E-05
     5      (1,33,35)            -5.00000000E-05
     6      (1,26,26)            -5.00000000E-05
     7      (1,41,26)            -5.00000000E-05
     8      (1,4,39)             -5.00000000E-05
     9      (1,27,3)             -5.00000000E-05
     10     (1,46,46)            -5.00000000E-05
 -----------------------------------------------




 WEL PACKAGE (WEL2) FLOW RATES   PERIOD      2   STEP       24
 -----------------------------------------------
   NUMBER   CELLID                    RATE      
 -----------------------------------------------
     1      (1,17,26)             2.50000000E-04
     2      (1,33,26)             2.50000000E-04
 -----------------------------------------------




 HEAD WILL BE SAVED ON UNIT 1028 AT END OF TIME STEP   24, STRESS PERIOD    2


  VOLUME BUDGET FOR ENTIRE MODEL AT END OF TIME STEP   24, STRESS PERIOD   2
  ---------------------------------------------------------------------------------------------------

     CUMULATIVE VOLUME      L**3       RATES FOR THIS TIME STEP      L**3/T          PACKAGE NAME    
     ------------------                 ------------------------                     ----------------

           IN:                                      IN:
           ---                                      ---
              STO-SS =           0.0000                STO-SS =           0.0000     STORAGE                          
                 WEL =           0.0000                   WEL =           0.0000     WEL1                             
                 WEL =           0.1240                   WEL =       5.0000E-04     WEL2                             

            TOTAL IN =           0.1240              TOTAL IN =       5.0000E-04

          OUT:                                     OUT:
          ----                                     ----
              STO-SS =           0.0000                STO-SS =           0.0000     STORAGE                          
                 WEL =           0.1240                   WEL =       5.0000E-04     WEL1                             
                 WEL =           0.0000                   WEL =           0.0000     WEL2                             

           TOTAL OUT =           0.1240             TOTAL OUT =       5.0000E-04

            IN - OUT =       4.0000E-11              IN - OUT =      -1.0842E-19

 PERCENT DISCREPANCY =           0.00     PERCENT DISCREPANCY =          -0.00




         TIME SUMMARY AT END OF TIME STEP   24 IN STRESS PERIOD    2
                    SECONDS     MINUTES      HOURS       DAYS        YEARS
                    -----------------------------------------------------------
   TIME STEP LENGTH 1.72800E+05  2880.0      48.000      2.0000     5.47570E-03
 STRESS PERIOD TIME 4.14720E+06  69120.      1152.0      48.000     0.13142    
         TOTAL TIME 2.14272E+07 3.57120E+05  5952.0      248.00     0.67899    


end timestep


start timestep kper="2" kstp="25" mode="normal"

 UBDSV1 SAVING           STO-SS ON UNIT   1027 AT TIME STEP     25, STRESS PERIOD      2
 UBDSV1 SAVING     FLOW-JA-FACE ON UNIT   1027 AT TIME STEP     25, STRESS PERIOD      2

 WEL PACKAGE (WEL1) FLOW RATES   PERIOD      2   STEP       25
 -----------------------------------------------
   NUMBER   CELLID                    RATE      
 -----------------------------------------------
     1      (1,17,17)            -5.00000000E-05
     2      (1,33,17)            -5.00000000E-05
     3      (1,9,26)             -5.00000000E-05
     4      (1,17,35)            -5.00000000E-05
     5      (1,33,35)            -5.00000000E-05
     6      (1,26,26)            -5.00000000E-05
     7      (1,41,26)            -5.00000000E-05
     8      (1,4,39)             -5.00000000E-05
     9      (1,27,3)             -5.00000000E-05
     10     (1,46,46)            -5.00000000E-05
 -----------------------------------------------




 WEL PACKAGE (WEL2) FLOW RATES   PERIOD      2   STEP       25
 -----------------------------------------------
   NUMBER   CELLID                    RATE      
 -----------------------------------------------
     1      (1,17,26)             2.50000000E-04
     2      (1,33,26)             2.50000000E-04
 -----------------------------------------------




 HEAD WILL BE SAVED ON UNIT 1028 AT END OF TIME STEP   25, STRESS PERIOD    2


  VOLUME BUDGET FOR ENTIRE MODEL AT END OF TIME STEP   25, STRESS PERIOD   2
  ---------------------------------------------------------------------------------------------------

     CUMULATIVE VOLUME      L**3       RATES FOR THIS TIME STEP      L**3/T          PACKAGE NAME    
     ------------------                 ------------------------                     ----------------

           IN:                                      IN:
           ---                                      ---
              STO-SS =           0.0000                STO-SS =           0.0000     STORAGE                          
                 WEL =           0.0000                   WEL =           0.0000     WEL1                             
                 WEL =           0.1250                   WEL =       5.0000E-04     WEL2                             

            TOTAL IN =           0.1250              TOTAL IN =       5.0000E-04

          OUT:                                     OUT:
          ----                                     ----
              STO-SS =           0.0000                STO-SS =           0.0000     STORAGE                          
                 WEL =           0.1250                   WEL =       5.0000E-04     WEL1                             
                 WEL =           0.0000                   WEL =           0.0000     WEL2                             

           TOTAL OUT =           0.1250             TOTAL OUT =       5.0000E-04

            IN - OUT =       4.0000E-11              IN - OUT =      -1.0842E-19

 PERCENT DISCREPANCY =           0.00     PERCENT DISCREPANCY =          -0.00




         TIME SUMMARY AT END OF TIME STEP   25 IN STRESS PERIOD    2
                    SECONDS     MINUTES      HOURS       DAYS        YEARS
                    -----------------------------------------------------------
   TIME STEP LENGTH 1.72800E+05  2880.0      48.000      2.0000     5.47570E-03
 STRESS PERIOD TIME 4.32000E+06  72000.      1200.0      50.000     0.13689    
         TOTAL TIME 2.16000E+07 3.60000E+05  6000.0      250.00     0.68446    


end timestep


start timestep kper="2" kstp="26" mode="normal"

 UBDSV1 SAVING           STO-SS ON UNIT   1027 AT TIME STEP     26, STRESS PERIOD      2
 UBDSV1 SAVING     FLOW-JA-FACE ON UNIT   1027 AT TIME STEP     26, STRESS PERIOD      2

 WEL PACKAGE (WEL1) FLOW RATES   PERIOD      2   STEP       26
 -----------------------------------------------
   NUMBER   CELLID                    RATE      
 -----------------------------------------------
     1      (1,17,17)            -5.00000000E-05
     2      (1,33,17)            -5.00000000E-05
     3      (1,9,26)             -5.00000000E-05
     4      (1,17,35)            -5.00000000E-05
     5      (1,33,35)            -5.00000000E-05
     6      (1,26,26)            -5.00000000E-05
     7      (1,41,26)            -5.00000000E-05
     8      (1,4,39)             -5.00000000E-05
     9      (1,27,3)             -5.00000000E-05
     10     (1,46,46)            -5.00000000E-05
 -----------------------------------------------




 WEL PACKAGE (WEL2) FLOW RATES   PERIOD      2   STEP       26
 -----------------------------------------------
   NUMBER   CELLID                    RATE      
 -----------------------------------------------
     1      (1,17,26)             2.50000000E-04
     2      (1,33,26)             2.50000000E-04
 -----------------------------------------------




 HEAD WILL BE SAVED ON UNIT 1028 AT END OF TIME STEP   26, STRESS PERIOD    2


  VOLUME BUDGET FOR ENTIRE MODEL AT END OF TIME STEP   26, STRESS PERIOD   2
  ---------------------------------------------------------------------------------------------------

     CUMULATIVE VOLUME      L**3       RATES FOR THIS TIME STEP      L**3/T          PACKAGE NAME    
     ------------------                 ------------------------                     ----------------

           IN:                                      IN:
           ---                                      ---
              STO-SS =           0.0000                STO-SS =           0.0000     STORAGE                          
                 WEL =           0.0000                   WEL =           0.0000     WEL1                             
                 WEL =           0.1260                   WEL =       5.0000E-04     WEL2                             

            TOTAL IN =           0.1260              TOTAL IN =       5.0000E-04

          OUT:                                     OUT:
          ----                                     ----
              STO-SS =           0.0000                STO-SS =           0.0000     STORAGE                          
                 WEL =           0.1260                   WEL =       5.0000E-04     WEL1                             
                 WEL =           0.0000                   WEL =           0.0000     WEL2                             

           TOTAL OUT =           0.1260             TOTAL OUT =       5.0000E-04

            IN - OUT =       4.0000E-11              IN - OUT =      -1.0842E-19

 PERCENT DISCREPANCY =           0.00     PERCENT DISCREPANCY =          -0.00




         TIME SUMMARY AT END OF TIME STEP   26 IN STRESS PERIOD    2
                    SECONDS     MINUTES      HOURS       DAYS        YEARS
                    -----------------------------------------------------------
   TIME STEP LENGTH 1.72800E+05  2880.0      48.000      2.0000     5.47570E-03
 STRESS PERIOD TIME 4.49280E+06  74880.      1248.0      52.000     0.14237    
         TOTAL TIME 2.17728E+07 3.62880E+05  6048.0      252.00     0.68994    


end timestep


start timestep kper="2" kstp="27" mode="normal"

 UBDSV1 SAVING           STO-SS ON UNIT   1027 AT TIME STEP     27, STRESS PERIOD      2
 UBDSV1 SAVING     FLOW-JA-FACE ON UNIT   1027 AT TIME STEP     27, STRESS PERIOD      2

 WEL PACKAGE (WEL1) FLOW RATES   PERIOD      2   STEP       27
 -----------------------------------------------
   NUMBER   CELLID                    RATE      
 -----------------------------------------------
     1      (1,17,17)            -5.00000000E-05
     2      (1,33,17)            -5.00000000E-05
     3      (1,9,26)             -5.00000000E-05
     4      (1,17,35)            -5.00000000E-05
     5      (1,33,35)            -5.00000000E-05
     6      (1,26,26)            -5.00000000E-05
     7      (1,41,26)            -5.00000000E-05
     8      (1,4,39)             -5.00000000E-05
     9      (1,27,3)             -5.00000000E-05
     10     (1,46,46)            -5.00000000E-05
 -----------------------------------------------




 WEL PACKAGE (WEL2) FLOW RATES   PERIOD      2   STEP       27
 -----------------------------------------------
   NUMBER   CELLID                    RATE      
 -----------------------------------------------
     1      (1,17,26)             2.50000000E-04
     2      (1,33,26)             2.50000000E-04
 -----------------------------------------------




 HEAD WILL BE SAVED ON UNIT 1028 AT END OF TIME STEP   27, STRESS PERIOD    2


  VOLUME BUDGET FOR ENTIRE MODEL AT END OF TIME STEP   27, STRESS PERIOD   2
  ---------------------------------------------------------------------------------------------------

     CUMULATIVE VOLUME      L**3       RATES FOR THIS TIME STEP      L**3/T          PACKAGE NAME    
     ------------------                 ------------------------                     ----------------

           IN:                                      IN:
           ---                                      ---
              STO-SS =           0.0000                STO-SS =           0.0000     STORAGE                          
                 WEL =           0.0000                   WEL =           0.0000     WEL1                             
                 WEL =           0.1270                   WEL =       5.0000E-04     WEL2                             

            TOTAL IN =           0.1270              TOTAL IN =       5.0000E-04

          OUT:                                     OUT:
          ----                                     ----
              STO-SS =           0.0000                STO-SS =           0.0000     STORAGE                          
                 WEL =           0.1270                   WEL =       5.0000E-04     WEL1                             
                 WEL =           0.0000                   WEL =           0.0000     WEL2                             

           TOTAL OUT =           0.1270             TOTAL OUT =       5.0000E-04

            IN - OUT =       4.0000E-11              IN - OUT =      -1.0842E-19

 PERCENT DISCREPANCY =           0.00     PERCENT DISCREPANCY =          -0.00




         TIME SUMMARY AT END OF TIME STEP   27 IN STRESS PERIOD    2
                    SECONDS     MINUTES      HOURS       DAYS        YEARS
                    -----------------------------------------------------------
   TIME STEP LENGTH 1.72800E+05  2880.0      48.000      2.0000     5.47570E-03
 STRESS PERIOD TIME 4.66560E+06  77760.      1296.0      54.000     0.14784    
         TOTAL TIME 2.19456E+07 3.65760E+05  6096.0      254.00     0.69541    


end timestep


start timestep kper="2" kstp="28" mode="normal"

 UBDSV1 SAVING           STO-SS ON UNIT   1027 AT TIME STEP     28, STRESS PERIOD      2
 UBDSV1 SAVING     FLOW-JA-FACE ON UNIT   1027 AT TIME STEP     28, STRESS PERIOD      2

 WEL PACKAGE (WEL1) FLOW RATES   PERIOD      2   STEP       28
 -----------------------------------------------
   NUMBER   CELLID                    RATE      
 -----------------------------------------------
     1      (1,17,17)            -5.00000000E-05
     2      (1,33,17)            -5.00000000E-05
     3      (1,9,26)             -5.00000000E-05
     4      (1,17,35)            -5.00000000E-05
     5      (1,33,35)            -5.00000000E-05
     6      (1,26,26)            -5.00000000E-05
     7      (1,41,26)            -5.00000000E-05
     8      (1,4,39)             -5.00000000E-05
     9      (1,27,3)             -5.00000000E-05
     10     (1,46,46)            -5.00000000E-05
 -----------------------------------------------




 WEL PACKAGE (WEL2) FLOW RATES   PERIOD      2   STEP       28
 -----------------------------------------------
   NUMBER   CELLID                    RATE      
 -----------------------------------------------
     1      (1,17,26)             2.50000000E-04
     2      (1,33,26)             2.50000000E-04
 -----------------------------------------------




 HEAD WILL BE SAVED ON UNIT 1028 AT END OF TIME STEP   28, STRESS PERIOD    2


  VOLUME BUDGET FOR ENTIRE MODEL AT END OF TIME STEP   28, STRESS PERIOD   2
  ---------------------------------------------------------------------------------------------------

     CUMULATIVE VOLUME      L**3       RATES FOR THIS TIME STEP      L**3/T          PACKAGE NAME    
     ------------------                 ------------------------                     ----------------

           IN:                                      IN:
           ---                                      ---
              STO-SS =           0.0000                STO-SS =           0.0000     STORAGE                          
                 WEL =           0.0000                   WEL =           0.0000     WEL1                             
                 WEL =           0.1280                   WEL =       5.0000E-04     WEL2                             

            TOTAL IN =           0.1280              TOTAL IN =       5.0000E-04

          OUT:                                     OUT:
          ----                                     ----
              STO-SS =           0.0000                STO-SS =           0.0000     STORAGE                          
                 WEL =           0.1280                   WEL =       5.0000E-04     WEL1                             
                 WEL =           0.0000                   WEL =           0.0000     WEL2                             

           TOTAL OUT =           0.1280             TOTAL OUT =       5.0000E-04

            IN - OUT =       4.0000E-11              IN - OUT =      -1.0842E-19

 PERCENT DISCREPANCY =           0.00     PERCENT DISCREPANCY =          -0.00




         TIME SUMMARY AT END OF TIME STEP   28 IN STRESS PERIOD    2
                    SECONDS     MINUTES      HOURS       DAYS        YEARS
                    -----------------------------------------------------------
   TIME STEP LENGTH 1.72800E+05  2880.0      48.000      2.0000     5.47570E-03
 STRESS PERIOD TIME 4.83840E+06  80640.      1344.0      56.000     0.15332    
         TOTAL TIME 2.21184E+07 3.68640E+05  6144.0      256.00     0.70089    


end timestep


start timestep kper="2" kstp="29" mode="normal"

 UBDSV1 SAVING           STO-SS ON UNIT   1027 AT TIME STEP     29, STRESS PERIOD      2
 UBDSV1 SAVING     FLOW-JA-FACE ON UNIT   1027 AT TIME STEP     29, STRESS PERIOD      2

 WEL PACKAGE (WEL1) FLOW RATES   PERIOD      2   STEP       29
 -----------------------------------------------
   NUMBER   CELLID                    RATE      
 -----------------------------------------------
     1      (1,17,17)            -5.00000000E-05
     2      (1,33,17)            -5.00000000E-05
     3      (1,9,26)             -5.00000000E-05
     4      (1,17,35)            -5.00000000E-05
     5      (1,33,35)            -5.00000000E-05
     6      (1,26,26)            -5.00000000E-05
     7      (1,41,26)            -5.00000000E-05
     8      (1,4,39)             -5.00000000E-05
     9      (1,27,3)             -5.00000000E-05
     10     (1,46,46)            -5.00000000E-05
 -----------------------------------------------




 WEL PACKAGE (WEL2) FLOW RATES   PERIOD      2   STEP       29
 -----------------------------------------------
   NUMBER   CELLID                    RATE      
 -----------------------------------------------
     1      (1,17,26)             2.50000000E-04
     2      (1,33,26)             2.50000000E-04
 -----------------------------------------------




 HEAD WILL BE SAVED ON UNIT 1028 AT END OF TIME STEP   29, STRESS PERIOD    2


  VOLUME BUDGET FOR ENTIRE MODEL AT END OF TIME STEP   29, STRESS PERIOD   2
  ---------------------------------------------------------------------------------------------------

     CUMULATIVE VOLUME      L**3       RATES FOR THIS TIME STEP      L**3/T          PACKAGE NAME    
     ------------------                 ------------------------                     ----------------

           IN:                                      IN:
           ---                                      ---
              STO-SS =           0.0000                STO-SS =           0.0000     STORAGE                          
                 WEL =           0.0000                   WEL =           0.0000     WEL1                             
                 WEL =           0.1290                   WEL =       5.0000E-04     WEL2                             

            TOTAL IN =           0.1290              TOTAL IN =       5.0000E-04

          OUT:                                     OUT:
          ----                                     ----
              STO-SS =           0.0000                STO-SS =           0.0000     STORAGE                          
                 WEL =           0.1290                   WEL =       5.0000E-04     WEL1                             
                 WEL =           0.0000                   WEL =           0.0000     WEL2                             

           TOTAL OUT =           0.1290             TOTAL OUT =       5.0000E-04

            IN - OUT =       4.0000E-11              IN - OUT =      -1.0842E-19

 PERCENT DISCREPANCY =           0.00     PERCENT DISCREPANCY =          -0.00




         TIME SUMMARY AT END OF TIME STEP   29 IN STRESS PERIOD    2
                    SECONDS     MINUTES      HOURS       DAYS        YEARS
                    -----------------------------------------------------------
   TIME STEP LENGTH 1.72800E+05  2880.0      48.000      2.0000     5.47570E-03
 STRESS PERIOD TIME 5.01120E+06  83520.      1392.0      58.000     0.15880    
         TOTAL TIME 2.22912E+07 3.71520E+05  6192.0      258.00     0.70637    


end timestep


start timestep kper="2" kstp="30" mode="normal"

 UBDSV1 SAVING           STO-SS ON UNIT   1027 AT TIME STEP     30, STRESS PERIOD      2
 UBDSV1 SAVING     FLOW-JA-FACE ON UNIT   1027 AT TIME STEP     30, STRESS PERIOD      2

 WEL PACKAGE (WEL1) FLOW RATES   PERIOD      2   STEP       30
 -----------------------------------------------
   NUMBER   CELLID                    RATE      
 -----------------------------------------------
     1      (1,17,17)            -5.00000000E-05
     2      (1,33,17)            -5.00000000E-05
     3      (1,9,26)             -5.00000000E-05
     4      (1,17,35)            -5.00000000E-05
     5      (1,33,35)            -5.00000000E-05
     6      (1,26,26)            -5.00000000E-05
     7      (1,41,26)            -5.00000000E-05
     8      (1,4,39)             -5.00000000E-05
     9      (1,27,3)             -5.00000000E-05
     10     (1,46,46)            -5.00000000E-05
 -----------------------------------------------




 WEL PACKAGE (WEL2) FLOW RATES   PERIOD      2   STEP       30
 -----------------------------------------------
   NUMBER   CELLID                    RATE      
 -----------------------------------------------
     1      (1,17,26)             2.50000000E-04
     2      (1,33,26)             2.50000000E-04
 -----------------------------------------------




 HEAD WILL BE SAVED ON UNIT 1028 AT END OF TIME STEP   30, STRESS PERIOD    2


  VOLUME BUDGET FOR ENTIRE MODEL AT END OF TIME STEP   30, STRESS PERIOD   2
  ---------------------------------------------------------------------------------------------------

     CUMULATIVE VOLUME      L**3       RATES FOR THIS TIME STEP      L**3/T          PACKAGE NAME    
     ------------------                 ------------------------                     ----------------

           IN:                                      IN:
           ---                                      ---
              STO-SS =           0.0000                STO-SS =           0.0000     STORAGE                          
                 WEL =           0.0000                   WEL =           0.0000     WEL1                             
                 WEL =           0.1300                   WEL =       5.0000E-04     WEL2                             

            TOTAL IN =           0.1300              TOTAL IN =       5.0000E-04

          OUT:                                     OUT:
          ----                                     ----
              STO-SS =           0.0000                STO-SS =           0.0000     STORAGE                          
                 WEL =           0.1300                   WEL =       5.0000E-04     WEL1                             
                 WEL =           0.0000                   WEL =           0.0000     WEL2                             

           TOTAL OUT =           0.1300             TOTAL OUT =       5.0000E-04

            IN - OUT =       4.0000E-11              IN - OUT =      -1.0842E-19

 PERCENT DISCREPANCY =           0.00     PERCENT DISCREPANCY =          -0.00




         TIME SUMMARY AT END OF TIME STEP   30 IN STRESS PERIOD    2
                    SECONDS     MINUTES      HOURS       DAYS        YEARS
                    -----------------------------------------------------------
   TIME STEP LENGTH 1.72800E+05  2880.0      48.000      2.0000     5.47570E-03
 STRESS PERIOD TIME 5.18400E+06  86400.      1440.0      60.000     0.16427    
         TOTAL TIME 2.24640E+07 3.74400E+05  6240.0      260.00     0.71184    


end timestep


start timestep kper="2" kstp="31" mode="normal"

 UBDSV1 SAVING           STO-SS ON UNIT   1027 AT TIME STEP     31, STRESS PERIOD      2
 UBDSV1 SAVING     FLOW-JA-FACE ON UNIT   1027 AT TIME STEP     31, STRESS PERIOD      2

 WEL PACKAGE (WEL1) FLOW RATES   PERIOD      2   STEP       31
 -----------------------------------------------
   NUMBER   CELLID                    RATE      
 -----------------------------------------------
     1      (1,17,17)            -5.00000000E-05
     2      (1,33,17)            -5.00000000E-05
     3      (1,9,26)             -5.00000000E-05
     4      (1,17,35)            -5.00000000E-05
     5      (1,33,35)            -5.00000000E-05
     6      (1,26,26)            -5.00000000E-05
     7      (1,41,26)            -5.00000000E-05
     8      (1,4,39)             -5.00000000E-05
     9      (1,27,3)             -5.00000000E-05
     10     (1,46,46)            -5.00000000E-05
 -----------------------------------------------




 WEL PACKAGE (WEL2) FLOW RATES   PERIOD      2   STEP       31
 -----------------------------------------------
   NUMBER   CELLID                    RATE      
 -----------------------------------------------
     1      (1,17,26)             2.50000000E-04
     2      (1,33,26)             2.50000000E-04
 -----------------------------------------------




 HEAD WILL BE SAVED ON UNIT 1028 AT END OF TIME STEP   31, STRESS PERIOD    2


  VOLUME BUDGET FOR ENTIRE MODEL AT END OF TIME STEP   31, STRESS PERIOD   2
  ---------------------------------------------------------------------------------------------------

     CUMULATIVE VOLUME      L**3       RATES FOR THIS TIME STEP      L**3/T          PACKAGE NAME    
     ------------------                 ------------------------                     ----------------

           IN:                                      IN:
           ---                                      ---
              STO-SS =           0.0000                STO-SS =           0.0000     STORAGE                          
                 WEL =           0.0000                   WEL =           0.0000     WEL1                             
                 WEL =           0.1310                   WEL =       5.0000E-04     WEL2                             

            TOTAL IN =           0.1310              TOTAL IN =       5.0000E-04

          OUT:                                     OUT:
          ----                                     ----
              STO-SS =           0.0000                STO-SS =           0.0000     STORAGE                          
                 WEL =           0.1310                   WEL =       5.0000E-04     WEL1                             
                 WEL =           0.0000                   WEL =           0.0000     WEL2                             

           TOTAL OUT =           0.1310             TOTAL OUT =       5.0000E-04

            IN - OUT =       4.0000E-11              IN - OUT =      -1.0842E-19

 PERCENT DISCREPANCY =           0.00     PERCENT DISCREPANCY =          -0.00




         TIME SUMMARY AT END OF TIME STEP   31 IN STRESS PERIOD    2
                    SECONDS     MINUTES      HOURS       DAYS        YEARS
                    -----------------------------------------------------------
   TIME STEP LENGTH 1.72800E+05  2880.0      48.000      2.0000     5.47570E-03
 STRESS PERIOD TIME 5.35680E+06  89280.      1488.0      62.000     0.16975    
         TOTAL TIME 2.26368E+07 3.77280E+05  6288.0      262.00     0.71732    


end timestep


start timestep kper="2" kstp="32" mode="normal"

 UBDSV1 SAVING           STO-SS ON UNIT   1027 AT TIME STEP     32, STRESS PERIOD      2
 UBDSV1 SAVING     FLOW-JA-FACE ON UNIT   1027 AT TIME STEP     32, STRESS PERIOD      2

 WEL PACKAGE (WEL1) FLOW RATES   PERIOD      2   STEP       32
 -----------------------------------------------
   NUMBER   CELLID                    RATE      
 -----------------------------------------------
     1      (1,17,17)            -5.00000000E-05
     2      (1,33,17)            -5.00000000E-05
     3      (1,9,26)             -5.00000000E-05
     4      (1,17,35)            -5.00000000E-05
     5      (1,33,35)            -5.00000000E-05
     6      (1,26,26)            -5.00000000E-05
     7      (1,41,26)            -5.00000000E-05
     8      (1,4,39)             -5.00000000E-05
     9      (1,27,3)             -5.00000000E-05
     10     (1,46,46)            -5.00000000E-05
 -----------------------------------------------




 WEL PACKAGE (WEL2) FLOW RATES   PERIOD      2   STEP       32
 -----------------------------------------------
   NUMBER   CELLID                    RATE      
 -----------------------------------------------
     1      (1,17,26)             2.50000000E-04
     2      (1,33,26)             2.50000000E-04
 -----------------------------------------------




 HEAD WILL BE SAVED ON UNIT 1028 AT END OF TIME STEP   32, STRESS PERIOD    2


  VOLUME BUDGET FOR ENTIRE MODEL AT END OF TIME STEP   32, STRESS PERIOD   2
  ---------------------------------------------------------------------------------------------------

     CUMULATIVE VOLUME      L**3       RATES FOR THIS TIME STEP      L**3/T          PACKAGE NAME    
     ------------------                 ------------------------                     ----------------

           IN:                                      IN:
           ---                                      ---
              STO-SS =           0.0000                STO-SS =           0.0000     STORAGE                          
                 WEL =           0.0000                   WEL =           0.0000     WEL1                             
                 WEL =           0.1320                   WEL =       5.0000E-04     WEL2                             

            TOTAL IN =           0.1320              TOTAL IN =       5.0000E-04

          OUT:                                     OUT:
          ----                                     ----
              STO-SS =           0.0000                STO-SS =           0.0000     STORAGE                          
                 WEL =           0.1320                   WEL =       5.0000E-04     WEL1                             
                 WEL =           0.0000                   WEL =           0.0000     WEL2                             

           TOTAL OUT =           0.1320             TOTAL OUT =       5.0000E-04

            IN - OUT =       4.0000E-11              IN - OUT =      -1.0842E-19

 PERCENT DISCREPANCY =           0.00     PERCENT DISCREPANCY =          -0.00




         TIME SUMMARY AT END OF TIME STEP   32 IN STRESS PERIOD    2
                    SECONDS     MINUTES      HOURS       DAYS        YEARS
                    -----------------------------------------------------------
   TIME STEP LENGTH 1.72800E+05  2880.0      48.000      2.0000     5.47570E-03
 STRESS PERIOD TIME 5.52960E+06  92160.      1536.0      64.000     0.17522    
         TOTAL TIME 2.28096E+07 3.80160E+05  6336.0      264.00     0.72279    


end timestep


start timestep kper="2" kstp="33" mode="normal"

 UBDSV1 SAVING           STO-SS ON UNIT   1027 AT TIME STEP     33, STRESS PERIOD      2
 UBDSV1 SAVING     FLOW-JA-FACE ON UNIT   1027 AT TIME STEP     33, STRESS PERIOD      2

 WEL PACKAGE (WEL1) FLOW RATES   PERIOD      2   STEP       33
 -----------------------------------------------
   NUMBER   CELLID                    RATE      
 -----------------------------------------------
     1      (1,17,17)            -5.00000000E-05
     2      (1,33,17)            -5.00000000E-05
     3      (1,9,26)             -5.00000000E-05
     4      (1,17,35)            -5.00000000E-05
     5      (1,33,35)            -5.00000000E-05
     6      (1,26,26)            -5.00000000E-05
     7      (1,41,26)            -5.00000000E-05
     8      (1,4,39)             -5.00000000E-05
     9      (1,27,3)             -5.00000000E-05
     10     (1,46,46)            -5.00000000E-05
 -----------------------------------------------




 WEL PACKAGE (WEL2) FLOW RATES   PERIOD      2   STEP       33
 -----------------------------------------------
   NUMBER   CELLID                    RATE      
 -----------------------------------------------
     1      (1,17,26)             2.50000000E-04
     2      (1,33,26)             2.50000000E-04
 -----------------------------------------------




 HEAD WILL BE SAVED ON UNIT 1028 AT END OF TIME STEP   33, STRESS PERIOD    2


  VOLUME BUDGET FOR ENTIRE MODEL AT END OF TIME STEP   33, STRESS PERIOD   2
  ---------------------------------------------------------------------------------------------------

     CUMULATIVE VOLUME      L**3       RATES FOR THIS TIME STEP      L**3/T          PACKAGE NAME    
     ------------------                 ------------------------                     ----------------

           IN:                                      IN:
           ---                                      ---
              STO-SS =           0.0000                STO-SS =           0.0000     STORAGE                          
                 WEL =           0.0000                   WEL =           0.0000     WEL1                             
                 WEL =           0.1330                   WEL =       5.0000E-04     WEL2                             

            TOTAL IN =           0.1330              TOTAL IN =       5.0000E-04

          OUT:                                     OUT:
          ----                                     ----
              STO-SS =           0.0000                STO-SS =           0.0000     STORAGE                          
                 WEL =           0.1330                   WEL =       5.0000E-04     WEL1                             
                 WEL =           0.0000                   WEL =           0.0000     WEL2                             

           TOTAL OUT =           0.1330             TOTAL OUT =       5.0000E-04

            IN - OUT =       4.0000E-11              IN - OUT =      -1.0842E-19

 PERCENT DISCREPANCY =           0.00     PERCENT DISCREPANCY =          -0.00




         TIME SUMMARY AT END OF TIME STEP   33 IN STRESS PERIOD    2
                    SECONDS     MINUTES      HOURS       DAYS        YEARS
                    -----------------------------------------------------------
   TIME STEP LENGTH 1.72800E+05  2880.0      48.000      2.0000     5.47570E-03
 STRESS PERIOD TIME 5.70240E+06  95040.      1584.0      66.000     0.18070    
         TOTAL TIME 2.29824E+07 3.83040E+05  6384.0      266.00     0.72827    


end timestep


start timestep kper="2" kstp="34" mode="normal"

 UBDSV1 SAVING           STO-SS ON UNIT   1027 AT TIME STEP     34, STRESS PERIOD      2
 UBDSV1 SAVING     FLOW-JA-FACE ON UNIT   1027 AT TIME STEP     34, STRESS PERIOD      2

 WEL PACKAGE (WEL1) FLOW RATES   PERIOD      2   STEP       34
 -----------------------------------------------
   NUMBER   CELLID                    RATE      
 -----------------------------------------------
     1      (1,17,17)            -5.00000000E-05
     2      (1,33,17)            -5.00000000E-05
     3      (1,9,26)             -5.00000000E-05
     4      (1,17,35)            -5.00000000E-05
     5      (1,33,35)            -5.00000000E-05
     6      (1,26,26)            -5.00000000E-05
     7      (1,41,26)            -5.00000000E-05
     8      (1,4,39)             -5.00000000E-05
     9      (1,27,3)             -5.00000000E-05
     10     (1,46,46)            -5.00000000E-05
 -----------------------------------------------




 WEL PACKAGE (WEL2) FLOW RATES   PERIOD      2   STEP       34
 -----------------------------------------------
   NUMBER   CELLID                    RATE      
 -----------------------------------------------
     1      (1,17,26)             2.50000000E-04
     2      (1,33,26)             2.50000000E-04
 -----------------------------------------------




 HEAD WILL BE SAVED ON UNIT 1028 AT END OF TIME STEP   34, STRESS PERIOD    2


  VOLUME BUDGET FOR ENTIRE MODEL AT END OF TIME STEP   34, STRESS PERIOD   2
  ---------------------------------------------------------------------------------------------------

     CUMULATIVE VOLUME      L**3       RATES FOR THIS TIME STEP      L**3/T          PACKAGE NAME    
     ------------------                 ------------------------                     ----------------

           IN:                                      IN:
           ---                                      ---
              STO-SS =           0.0000                STO-SS =           0.0000     STORAGE                          
                 WEL =           0.0000                   WEL =           0.0000     WEL1                             
                 WEL =           0.1340                   WEL =       5.0000E-04     WEL2                             

            TOTAL IN =           0.1340              TOTAL IN =       5.0000E-04

          OUT:                                     OUT:
          ----                                     ----
              STO-SS =           0.0000                STO-SS =           0.0000     STORAGE                          
                 WEL =           0.1340                   WEL =       5.0000E-04     WEL1                             
                 WEL =           0.0000                   WEL =           0.0000     WEL2                             

           TOTAL OUT =           0.1340             TOTAL OUT =       5.0000E-04

            IN - OUT =       4.0000E-11              IN - OUT =      -1.0842E-19

 PERCENT DISCREPANCY =           0.00     PERCENT DISCREPANCY =          -0.00




         TIME SUMMARY AT END OF TIME STEP   34 IN STRESS PERIOD    2
                    SECONDS     MINUTES      HOURS       DAYS        YEARS
                    -----------------------------------------------------------
   TIME STEP LENGTH 1.72800E+05  2880.0      48.000      2.0000     5.47570E-03
 STRESS PERIOD TIME 5.87520E+06  97920.      1632.0      68.000     0.18617    
         TOTAL TIME 2.31552E+07 3.85920E+05  6432.0      268.00     0.73374    


end timestep


start timestep kper="2" kstp="35" mode="normal"

 UBDSV1 SAVING           STO-SS ON UNIT   1027 AT TIME STEP     35, STRESS PERIOD      2
 UBDSV1 SAVING     FLOW-JA-FACE ON UNIT   1027 AT TIME STEP     35, STRESS PERIOD      2

 WEL PACKAGE (WEL1) FLOW RATES   PERIOD      2   STEP       35
 -----------------------------------------------
   NUMBER   CELLID                    RATE      
 -----------------------------------------------
     1      (1,17,17)            -5.00000000E-05
     2      (1,33,17)            -5.00000000E-05
     3      (1,9,26)             -5.00000000E-05
     4      (1,17,35)            -5.00000000E-05
     5      (1,33,35)            -5.00000000E-05
     6      (1,26,26)            -5.00000000E-05
     7      (1,41,26)            -5.00000000E-05
     8      (1,4,39)             -5.00000000E-05
     9      (1,27,3)             -5.00000000E-05
     10     (1,46,46)            -5.00000000E-05
 -----------------------------------------------




 WEL PACKAGE (WEL2) FLOW RATES   PERIOD      2   STEP       35
 -----------------------------------------------
   NUMBER   CELLID                    RATE      
 -----------------------------------------------
     1      (1,17,26)             2.50000000E-04
     2      (1,33,26)             2.50000000E-04
 -----------------------------------------------




 HEAD WILL BE SAVED ON UNIT 1028 AT END OF TIME STEP   35, STRESS PERIOD    2


  VOLUME BUDGET FOR ENTIRE MODEL AT END OF TIME STEP   35, STRESS PERIOD   2
  ---------------------------------------------------------------------------------------------------

     CUMULATIVE VOLUME      L**3       RATES FOR THIS TIME STEP      L**3/T          PACKAGE NAME    
     ------------------                 ------------------------                     ----------------

           IN:                                      IN:
           ---                                      ---
              STO-SS =           0.0000                STO-SS =           0.0000     STORAGE                          
                 WEL =           0.0000                   WEL =           0.0000     WEL1                             
                 WEL =           0.1350                   WEL =       5.0000E-04     WEL2                             

            TOTAL IN =           0.1350              TOTAL IN =       5.0000E-04

          OUT:                                     OUT:
          ----                                     ----
              STO-SS =           0.0000                STO-SS =           0.0000     STORAGE                          
                 WEL =           0.1350                   WEL =       5.0000E-04     WEL1                             
                 WEL =           0.0000                   WEL =           0.0000     WEL2                             

           TOTAL OUT =           0.1350             TOTAL OUT =       5.0000E-04

            IN - OUT =       4.0000E-11              IN - OUT =      -1.0842E-19

 PERCENT DISCREPANCY =           0.00     PERCENT DISCREPANCY =          -0.00




         TIME SUMMARY AT END OF TIME STEP   35 IN STRESS PERIOD    2
                    SECONDS     MINUTES      HOURS       DAYS        YEARS
                    -----------------------------------------------------------
   TIME STEP LENGTH 1.72800E+05  2880.0      48.000      2.0000     5.47570E-03
 STRESS PERIOD TIME 6.04800E+06 1.00800E+05  1680.0      70.000     0.19165    
         TOTAL TIME 2.33280E+07 3.88800E+05  6480.0      270.00     0.73922    


end timestep


start timestep kper="2" kstp="36" mode="normal"

 UBDSV1 SAVING           STO-SS ON UNIT   1027 AT TIME STEP     36, STRESS PERIOD      2
 UBDSV1 SAVING     FLOW-JA-FACE ON UNIT   1027 AT TIME STEP     36, STRESS PERIOD      2

 WEL PACKAGE (WEL1) FLOW RATES   PERIOD      2   STEP       36
 -----------------------------------------------
   NUMBER   CELLID                    RATE      
 -----------------------------------------------
     1      (1,17,17)            -5.00000000E-05
     2      (1,33,17)            -5.00000000E-05
     3      (1,9,26)             -5.00000000E-05
     4      (1,17,35)            -5.00000000E-05
     5      (1,33,35)            -5.00000000E-05
     6      (1,26,26)            -5.00000000E-05
     7      (1,41,26)            -5.00000000E-05
     8      (1,4,39)             -5.00000000E-05
     9      (1,27,3)             -5.00000000E-05
     10     (1,46,46)            -5.00000000E-05
 -----------------------------------------------




 WEL PACKAGE (WEL2) FLOW RATES   PERIOD      2   STEP       36
 -----------------------------------------------
   NUMBER   CELLID                    RATE      
 -----------------------------------------------
     1      (1,17,26)             2.50000000E-04
     2      (1,33,26)             2.50000000E-04
 -----------------------------------------------




 HEAD WILL BE SAVED ON UNIT 1028 AT END OF TIME STEP   36, STRESS PERIOD    2


  VOLUME BUDGET FOR ENTIRE MODEL AT END OF TIME STEP   36, STRESS PERIOD   2
  ---------------------------------------------------------------------------------------------------

     CUMULATIVE VOLUME      L**3       RATES FOR THIS TIME STEP      L**3/T          PACKAGE NAME    
     ------------------                 ------------------------                     ----------------

           IN:                                      IN:
           ---                                      ---
              STO-SS =           0.0000                STO-SS =           0.0000     STORAGE                          
                 WEL =           0.0000                   WEL =           0.0000     WEL1                             
                 WEL =           0.1360                   WEL =       5.0000E-04     WEL2                             

            TOTAL IN =           0.1360              TOTAL IN =       5.0000E-04

          OUT:                                     OUT:
          ----                                     ----
              STO-SS =           0.0000                STO-SS =           0.0000     STORAGE                          
                 WEL =           0.1360                   WEL =       5.0000E-04     WEL1                             
                 WEL =           0.0000                   WEL =           0.0000     WEL2                             

           TOTAL OUT =           0.1360             TOTAL OUT =       5.0000E-04

            IN - OUT =       4.0000E-11              IN - OUT =      -1.0842E-19

 PERCENT DISCREPANCY =           0.00     PERCENT DISCREPANCY =          -0.00




         TIME SUMMARY AT END OF TIME STEP   36 IN STRESS PERIOD    2
                    SECONDS     MINUTES      HOURS       DAYS        YEARS
                    -----------------------------------------------------------
   TIME STEP LENGTH 1.72800E+05  2880.0      48.000      2.0000     5.47570E-03
 STRESS PERIOD TIME 6.22080E+06 1.03680E+05  1728.0      72.000     0.19713    
         TOTAL TIME 2.35008E+07 3.91680E+05  6528.0      272.00     0.74470    


end timestep


start timestep kper="2" kstp="37" mode="normal"

 UBDSV1 SAVING           STO-SS ON UNIT   1027 AT TIME STEP     37, STRESS PERIOD      2
 UBDSV1 SAVING     FLOW-JA-FACE ON UNIT   1027 AT TIME STEP     37, STRESS PERIOD      2

 WEL PACKAGE (WEL1) FLOW RATES   PERIOD      2   STEP       37
 -----------------------------------------------
   NUMBER   CELLID                    RATE      
 -----------------------------------------------
     1      (1,17,17)            -5.00000000E-05
     2      (1,33,17)            -5.00000000E-05
     3      (1,9,26)             -5.00000000E-05
     4      (1,17,35)            -5.00000000E-05
     5      (1,33,35)            -5.00000000E-05
     6      (1,26,26)            -5.00000000E-05
     7      (1,41,26)            -5.00000000E-05
     8      (1,4,39)             -5.00000000E-05
     9      (1,27,3)             -5.00000000E-05
     10     (1,46,46)            -5.00000000E-05
 -----------------------------------------------




 WEL PACKAGE (WEL2) FLOW RATES   PERIOD      2   STEP       37
 -----------------------------------------------
   NUMBER   CELLID                    RATE      
 -----------------------------------------------
     1      (1,17,26)             2.50000000E-04
     2      (1,33,26)             2.50000000E-04
 -----------------------------------------------




 HEAD WILL BE SAVED ON UNIT 1028 AT END OF TIME STEP   37, STRESS PERIOD    2


  VOLUME BUDGET FOR ENTIRE MODEL AT END OF TIME STEP   37, STRESS PERIOD   2
  ---------------------------------------------------------------------------------------------------

     CUMULATIVE VOLUME      L**3       RATES FOR THIS TIME STEP      L**3/T          PACKAGE NAME    
     ------------------                 ------------------------                     ----------------

           IN:                                      IN:
           ---                                      ---
              STO-SS =           0.0000                STO-SS =           0.0000     STORAGE                          
                 WEL =           0.0000                   WEL =           0.0000     WEL1                             
                 WEL =           0.1370                   WEL =       5.0000E-04     WEL2                             

            TOTAL IN =           0.1370              TOTAL IN =       5.0000E-04

          OUT:                                     OUT:
          ----                                     ----
              STO-SS =           0.0000                STO-SS =           0.0000     STORAGE                          
                 WEL =           0.1370                   WEL =       5.0000E-04     WEL1                             
                 WEL =           0.0000                   WEL =           0.0000     WEL2                             

           TOTAL OUT =           0.1370             TOTAL OUT =       5.0000E-04

            IN - OUT =       4.0000E-11              IN - OUT =      -1.0842E-19

 PERCENT DISCREPANCY =           0.00     PERCENT DISCREPANCY =          -0.00




         TIME SUMMARY AT END OF TIME STEP   37 IN STRESS PERIOD    2
                    SECONDS     MINUTES      HOURS       DAYS        YEARS
                    -----------------------------------------------------------
   TIME STEP LENGTH 1.72800E+05  2880.0      48.000      2.0000     5.47570E-03
 STRESS PERIOD TIME 6.39360E+06 1.06560E+05  1776.0      74.000     0.20260    
         TOTAL TIME 2.36736E+07 3.94560E+05  6576.0      274.00     0.75017    


end timestep


start timestep kper="2" kstp="38" mode="normal"

 UBDSV1 SAVING           STO-SS ON UNIT   1027 AT TIME STEP     38, STRESS PERIOD      2
 UBDSV1 SAVING     FLOW-JA-FACE ON UNIT   1027 AT TIME STEP     38, STRESS PERIOD      2

 WEL PACKAGE (WEL1) FLOW RATES   PERIOD      2   STEP       38
 -----------------------------------------------
   NUMBER   CELLID                    RATE      
 -----------------------------------------------
     1      (1,17,17)            -5.00000000E-05
     2      (1,33,17)            -5.00000000E-05
     3      (1,9,26)             -5.00000000E-05
     4      (1,17,35)            -5.00000000E-05
     5      (1,33,35)            -5.00000000E-05
     6      (1,26,26)            -5.00000000E-05
     7      (1,41,26)            -5.00000000E-05
     8      (1,4,39)             -5.00000000E-05
     9      (1,27,3)             -5.00000000E-05
     10     (1,46,46)            -5.00000000E-05
 -----------------------------------------------




 WEL PACKAGE (WEL2) FLOW RATES   PERIOD      2   STEP       38
 -----------------------------------------------
   NUMBER   CELLID                    RATE      
 -----------------------------------------------
     1      (1,17,26)             2.50000000E-04
     2      (1,33,26)             2.50000000E-04
 -----------------------------------------------




 HEAD WILL BE SAVED ON UNIT 1028 AT END OF TIME STEP   38, STRESS PERIOD    2


  VOLUME BUDGET FOR ENTIRE MODEL AT END OF TIME STEP   38, STRESS PERIOD   2
  ---------------------------------------------------------------------------------------------------

     CUMULATIVE VOLUME      L**3       RATES FOR THIS TIME STEP      L**3/T          PACKAGE NAME    
     ------------------                 ------------------------                     ----------------

           IN:                                      IN:
           ---                                      ---
              STO-SS =           0.0000                STO-SS =           0.0000     STORAGE                          
                 WEL =           0.0000                   WEL =           0.0000     WEL1                             
                 WEL =           0.1380                   WEL =       5.0000E-04     WEL2                             

            TOTAL IN =           0.1380              TOTAL IN =       5.0000E-04

          OUT:                                     OUT:
          ----                                     ----
              STO-SS =           0.0000                STO-SS =           0.0000     STORAGE                          
                 WEL =           0.1380                   WEL =       5.0000E-04     WEL1                             
                 WEL =           0.0000                   WEL =           0.0000     WEL2                             

           TOTAL OUT =           0.1380             TOTAL OUT =       5.0000E-04

            IN - OUT =       4.0000E-11              IN - OUT =      -1.0842E-19

 PERCENT DISCREPANCY =           0.00     PERCENT DISCREPANCY =          -0.00




         TIME SUMMARY AT END OF TIME STEP   38 IN STRESS PERIOD    2
                    SECONDS     MINUTES      HOURS       DAYS        YEARS
                    -----------------------------------------------------------
   TIME STEP LENGTH 1.72800E+05  2880.0      48.000      2.0000     5.47570E-03
 STRESS PERIOD TIME 6.56640E+06 1.09440E+05  1824.0      76.000     0.20808    
         TOTAL TIME 2.38464E+07 3.97440E+05  6624.0      276.00     0.75565    


end timestep


start timestep kper="2" kstp="39" mode="normal"

 UBDSV1 SAVING           STO-SS ON UNIT   1027 AT TIME STEP     39, STRESS PERIOD      2
 UBDSV1 SAVING     FLOW-JA-FACE ON UNIT   1027 AT TIME STEP     39, STRESS PERIOD      2

 WEL PACKAGE (WEL1) FLOW RATES   PERIOD      2   STEP       39
 -----------------------------------------------
   NUMBER   CELLID                    RATE      
 -----------------------------------------------
     1      (1,17,17)            -5.00000000E-05
     2      (1,33,17)            -5.00000000E-05
     3      (1,9,26)             -5.00000000E-05
     4      (1,17,35)            -5.00000000E-05
     5      (1,33,35)            -5.00000000E-05
     6      (1,26,26)            -5.00000000E-05
     7      (1,41,26)            -5.00000000E-05
     8      (1,4,39)             -5.00000000E-05
     9      (1,27,3)             -5.00000000E-05
     10     (1,46,46)            -5.00000000E-05
 -----------------------------------------------




 WEL PACKAGE (WEL2) FLOW RATES   PERIOD      2   STEP       39
 -----------------------------------------------
   NUMBER   CELLID                    RATE      
 -----------------------------------------------
     1      (1,17,26)             2.50000000E-04
     2      (1,33,26)             2.50000000E-04
 -----------------------------------------------




 HEAD WILL BE SAVED ON UNIT 1028 AT END OF TIME STEP   39, STRESS PERIOD    2


  VOLUME BUDGET FOR ENTIRE MODEL AT END OF TIME STEP   39, STRESS PERIOD   2
  ---------------------------------------------------------------------------------------------------

     CUMULATIVE VOLUME      L**3       RATES FOR THIS TIME STEP      L**3/T          PACKAGE NAME    
     ------------------                 ------------------------                     ----------------

           IN:                                      IN:
           ---                                      ---
              STO-SS =           0.0000                STO-SS =           0.0000     STORAGE                          
                 WEL =           0.0000                   WEL =           0.0000     WEL1                             
                 WEL =           0.1390                   WEL =       5.0000E-04     WEL2                             

            TOTAL IN =           0.1390              TOTAL IN =       5.0000E-04

          OUT:                                     OUT:
          ----                                     ----
              STO-SS =           0.0000                STO-SS =           0.0000     STORAGE                          
                 WEL =           0.1390                   WEL =       5.0000E-04     WEL1                             
                 WEL =           0.0000                   WEL =           0.0000     WEL2                             

           TOTAL OUT =           0.1390             TOTAL OUT =       5.0000E-04

            IN - OUT =       4.0000E-11              IN - OUT =      -1.0842E-19

 PERCENT DISCREPANCY =           0.00     PERCENT DISCREPANCY =          -0.00




         TIME SUMMARY AT END OF TIME STEP   39 IN STRESS PERIOD    2
                    SECONDS     MINUTES      HOURS       DAYS        YEARS
                    -----------------------------------------------------------
   TIME STEP LENGTH 1.72800E+05  2880.0      48.000      2.0000     5.47570E-03
 STRESS PERIOD TIME 6.73920E+06 1.12320E+05  1872.0      78.000     0.21355    
         TOTAL TIME 2.40192E+07 4.00320E+05  6672.0      278.00     0.76112    


end timestep


start timestep kper="2" kstp="40" mode="normal"

 UBDSV1 SAVING           STO-SS ON UNIT   1027 AT TIME STEP     40, STRESS PERIOD      2
 UBDSV1 SAVING     FLOW-JA-FACE ON UNIT   1027 AT TIME STEP     40, STRESS PERIOD      2

 WEL PACKAGE (WEL1) FLOW RATES   PERIOD      2   STEP       40
 -----------------------------------------------
   NUMBER   CELLID                    RATE      
 -----------------------------------------------
     1      (1,17,17)            -5.00000000E-05
     2      (1,33,17)            -5.00000000E-05
     3      (1,9,26)             -5.00000000E-05
     4      (1,17,35)            -5.00000000E-05
     5      (1,33,35)            -5.00000000E-05
     6      (1,26,26)            -5.00000000E-05
     7      (1,41,26)            -5.00000000E-05
     8      (1,4,39)             -5.00000000E-05
     9      (1,27,3)             -5.00000000E-05
     10     (1,46,46)            -5.00000000E-05
 -----------------------------------------------




 WEL PACKAGE (WEL2) FLOW RATES   PERIOD      2   STEP       40
 -----------------------------------------------
   NUMBER   CELLID                    RATE      
 -----------------------------------------------
     1      (1,17,26)             2.50000000E-04
     2      (1,33,26)             2.50000000E-04
 -----------------------------------------------




 HEAD WILL BE SAVED ON UNIT 1028 AT END OF TIME STEP   40, STRESS PERIOD    2


  VOLUME BUDGET FOR ENTIRE MODEL AT END OF TIME STEP   40, STRESS PERIOD   2
  ---------------------------------------------------------------------------------------------------

     CUMULATIVE VOLUME      L**3       RATES FOR THIS TIME STEP      L**3/T          PACKAGE NAME    
     ------------------                 ------------------------                     ----------------

           IN:                                      IN:
           ---                                      ---
              STO-SS =           0.0000                STO-SS =           0.0000     STORAGE                          
                 WEL =           0.0000                   WEL =           0.0000     WEL1                             
                 WEL =           0.1400                   WEL =       5.0000E-04     WEL2                             

            TOTAL IN =           0.1400              TOTAL IN =       5.0000E-04

          OUT:                                     OUT:
          ----                                     ----
              STO-SS =           0.0000                STO-SS =           0.0000     STORAGE                          
                 WEL =           0.1400                   WEL =       5.0000E-04     WEL1                             
                 WEL =           0.0000                   WEL =           0.0000     WEL2                             

           TOTAL OUT =           0.1400             TOTAL OUT =       5.0000E-04

            IN - OUT =       4.0000E-11              IN - OUT =      -1.0842E-19

 PERCENT DISCREPANCY =           0.00     PERCENT DISCREPANCY =          -0.00




         TIME SUMMARY AT END OF TIME STEP   40 IN STRESS PERIOD    2
                    SECONDS     MINUTES      HOURS       DAYS        YEARS
                    -----------------------------------------------------------
   TIME STEP LENGTH 1.72800E+05  2880.0      48.000      2.0000     5.47570E-03
 STRESS PERIOD TIME 6.91200E+06 1.15200E+05  1920.0      80.000     0.21903    
         TOTAL TIME 2.41920E+07 4.03200E+05  6720.0      280.00     0.76660    


end timestep


start timestep kper="2" kstp="41" mode="normal"

 UBDSV1 SAVING           STO-SS ON UNIT   1027 AT TIME STEP     41, STRESS PERIOD      2
 UBDSV1 SAVING     FLOW-JA-FACE ON UNIT   1027 AT TIME STEP     41, STRESS PERIOD      2

 WEL PACKAGE (WEL1) FLOW RATES   PERIOD      2   STEP       41
 -----------------------------------------------
   NUMBER   CELLID                    RATE      
 -----------------------------------------------
     1      (1,17,17)            -5.00000000E-05
     2      (1,33,17)            -5.00000000E-05
     3      (1,9,26)             -5.00000000E-05
     4      (1,17,35)            -5.00000000E-05
     5      (1,33,35)            -5.00000000E-05
     6      (1,26,26)            -5.00000000E-05
     7      (1,41,26)            -5.00000000E-05
     8      (1,4,39)             -5.00000000E-05
     9      (1,27,3)             -5.00000000E-05
     10     (1,46,46)            -5.00000000E-05
 -----------------------------------------------




 WEL PACKAGE (WEL2) FLOW RATES   PERIOD      2   STEP       41
 -----------------------------------------------
   NUMBER   CELLID                    RATE      
 -----------------------------------------------
     1      (1,17,26)             2.50000000E-04
     2      (1,33,26)             2.50000000E-04
 -----------------------------------------------




 HEAD WILL BE SAVED ON UNIT 1028 AT END OF TIME STEP   41, STRESS PERIOD    2


  VOLUME BUDGET FOR ENTIRE MODEL AT END OF TIME STEP   41, STRESS PERIOD   2
  ---------------------------------------------------------------------------------------------------

     CUMULATIVE VOLUME      L**3       RATES FOR THIS TIME STEP      L**3/T          PACKAGE NAME    
     ------------------                 ------------------------                     ----------------

           IN:                                      IN:
           ---                                      ---
              STO-SS =           0.0000                STO-SS =           0.0000     STORAGE                          
                 WEL =           0.0000                   WEL =           0.0000     WEL1                             
                 WEL =           0.1410                   WEL =       5.0000E-04     WEL2                             

            TOTAL IN =           0.1410              TOTAL IN =       5.0000E-04

          OUT:                                     OUT:
          ----                                     ----
              STO-SS =           0.0000                STO-SS =           0.0000     STORAGE                          
                 WEL =           0.1410                   WEL =       5.0000E-04     WEL1                             
                 WEL =           0.0000                   WEL =           0.0000     WEL2                             

           TOTAL OUT =           0.1410             TOTAL OUT =       5.0000E-04

            IN - OUT =       4.0000E-11              IN - OUT =      -1.0842E-19

 PERCENT DISCREPANCY =           0.00     PERCENT DISCREPANCY =          -0.00




         TIME SUMMARY AT END OF TIME STEP   41 IN STRESS PERIOD    2
                    SECONDS     MINUTES      HOURS       DAYS        YEARS
                    -----------------------------------------------------------
   TIME STEP LENGTH 1.72800E+05  2880.0      48.000      2.0000     5.47570E-03
 STRESS PERIOD TIME 7.08480E+06 1.18080E+05  1968.0      82.000     0.22450    
         TOTAL TIME 2.43648E+07 4.06080E+05  6768.0      282.00     0.77207    


end timestep


start timestep kper="2" kstp="42" mode="normal"

 UBDSV1 SAVING           STO-SS ON UNIT   1027 AT TIME STEP     42, STRESS PERIOD      2
 UBDSV1 SAVING     FLOW-JA-FACE ON UNIT   1027 AT TIME STEP     42, STRESS PERIOD      2

 WEL PACKAGE (WEL1) FLOW RATES   PERIOD      2   STEP       42
 -----------------------------------------------
   NUMBER   CELLID                    RATE      
 -----------------------------------------------
     1      (1,17,17)            -5.00000000E-05
     2      (1,33,17)            -5.00000000E-05
     3      (1,9,26)             -5.00000000E-05
     4      (1,17,35)            -5.00000000E-05
     5      (1,33,35)            -5.00000000E-05
     6      (1,26,26)            -5.00000000E-05
     7      (1,41,26)            -5.00000000E-05
     8      (1,4,39)             -5.00000000E-05
     9      (1,27,3)             -5.00000000E-05
     10     (1,46,46)            -5.00000000E-05
 -----------------------------------------------




 WEL PACKAGE (WEL2) FLOW RATES   PERIOD      2   STEP       42
 -----------------------------------------------
   NUMBER   CELLID                    RATE      
 -----------------------------------------------
     1      (1,17,26)             2.50000000E-04
     2      (1,33,26)             2.50000000E-04
 -----------------------------------------------




 HEAD WILL BE SAVED ON UNIT 1028 AT END OF TIME STEP   42, STRESS PERIOD    2


  VOLUME BUDGET FOR ENTIRE MODEL AT END OF TIME STEP   42, STRESS PERIOD   2
  ---------------------------------------------------------------------------------------------------

     CUMULATIVE VOLUME      L**3       RATES FOR THIS TIME STEP      L**3/T          PACKAGE NAME    
     ------------------                 ------------------------                     ----------------

           IN:                                      IN:
           ---                                      ---
              STO-SS =           0.0000                STO-SS =           0.0000     STORAGE                          
                 WEL =           0.0000                   WEL =           0.0000     WEL1                             
                 WEL =           0.1420                   WEL =       5.0000E-04     WEL2                             

            TOTAL IN =           0.1420              TOTAL IN =       5.0000E-04

          OUT:                                     OUT:
          ----                                     ----
              STO-SS =           0.0000                STO-SS =           0.0000     STORAGE                          
                 WEL =           0.1420                   WEL =       5.0000E-04     WEL1                             
                 WEL =           0.0000                   WEL =           0.0000     WEL2                             

           TOTAL OUT =           0.1420             TOTAL OUT =       5.0000E-04

            IN - OUT =       4.0000E-11              IN - OUT =      -1.0842E-19

 PERCENT DISCREPANCY =           0.00     PERCENT DISCREPANCY =          -0.00




         TIME SUMMARY AT END OF TIME STEP   42 IN STRESS PERIOD    2
                    SECONDS     MINUTES      HOURS       DAYS        YEARS
                    -----------------------------------------------------------
   TIME STEP LENGTH 1.72800E+05  2880.0      48.000      2.0000     5.47570E-03
 STRESS PERIOD TIME 7.25760E+06 1.20960E+05  2016.0      84.000     0.22998    
         TOTAL TIME 2.45376E+07 4.08960E+05  6816.0      284.00     0.77755    


end timestep


start timestep kper="2" kstp="43" mode="normal"

 UBDSV1 SAVING           STO-SS ON UNIT   1027 AT TIME STEP     43, STRESS PERIOD      2
 UBDSV1 SAVING     FLOW-JA-FACE ON UNIT   1027 AT TIME STEP     43, STRESS PERIOD      2

 WEL PACKAGE (WEL1) FLOW RATES   PERIOD      2   STEP       43
 -----------------------------------------------
   NUMBER   CELLID                    RATE      
 -----------------------------------------------
     1      (1,17,17)            -5.00000000E-05
     2      (1,33,17)            -5.00000000E-05
     3      (1,9,26)             -5.00000000E-05
     4      (1,17,35)            -5.00000000E-05
     5      (1,33,35)            -5.00000000E-05
     6      (1,26,26)            -5.00000000E-05
     7      (1,41,26)            -5.00000000E-05
     8      (1,4,39)             -5.00000000E-05
     9      (1,27,3)             -5.00000000E-05
     10     (1,46,46)            -5.00000000E-05
 -----------------------------------------------




 WEL PACKAGE (WEL2) FLOW RATES   PERIOD      2   STEP       43
 -----------------------------------------------
   NUMBER   CELLID                    RATE      
 -----------------------------------------------
     1      (1,17,26)             2.50000000E-04
     2      (1,33,26)             2.50000000E-04
 -----------------------------------------------




 HEAD WILL BE SAVED ON UNIT 1028 AT END OF TIME STEP   43, STRESS PERIOD    2


  VOLUME BUDGET FOR ENTIRE MODEL AT END OF TIME STEP   43, STRESS PERIOD   2
  ---------------------------------------------------------------------------------------------------

     CUMULATIVE VOLUME      L**3       RATES FOR THIS TIME STEP      L**3/T          PACKAGE NAME    
     ------------------                 ------------------------                     ----------------

           IN:                                      IN:
           ---                                      ---
              STO-SS =           0.0000                STO-SS =           0.0000     STORAGE                          
                 WEL =           0.0000                   WEL =           0.0000     WEL1                             
                 WEL =           0.1430                   WEL =       5.0000E-04     WEL2                             

            TOTAL IN =           0.1430              TOTAL IN =       5.0000E-04

          OUT:                                     OUT:
          ----                                     ----
              STO-SS =           0.0000                STO-SS =           0.0000     STORAGE                          
                 WEL =           0.1430                   WEL =       5.0000E-04     WEL1                             
                 WEL =           0.0000                   WEL =           0.0000     WEL2                             

           TOTAL OUT =           0.1430             TOTAL OUT =       5.0000E-04

            IN - OUT =       4.0000E-11              IN - OUT =      -1.0842E-19

 PERCENT DISCREPANCY =           0.00     PERCENT DISCREPANCY =          -0.00




         TIME SUMMARY AT END OF TIME STEP   43 IN STRESS PERIOD    2
                    SECONDS     MINUTES      HOURS       DAYS        YEARS
                    -----------------------------------------------------------
   TIME STEP LENGTH 1.72800E+05  2880.0      48.000      2.0000     5.47570E-03
 STRESS PERIOD TIME 7.43040E+06 1.23840E+05  2064.0      86.000     0.23546    
         TOTAL TIME 2.47104E+07 4.11840E+05  6864.0      286.00     0.78303    


end timestep


start timestep kper="2" kstp="44" mode="normal"

 UBDSV1 SAVING           STO-SS ON UNIT   1027 AT TIME STEP     44, STRESS PERIOD      2
 UBDSV1 SAVING     FLOW-JA-FACE ON UNIT   1027 AT TIME STEP     44, STRESS PERIOD      2

 WEL PACKAGE (WEL1) FLOW RATES   PERIOD      2   STEP       44
 -----------------------------------------------
   NUMBER   CELLID                    RATE      
 -----------------------------------------------
     1      (1,17,17)            -5.00000000E-05
     2      (1,33,17)            -5.00000000E-05
     3      (1,9,26)             -5.00000000E-05
     4      (1,17,35)            -5.00000000E-05
     5      (1,33,35)            -5.00000000E-05
     6      (1,26,26)            -5.00000000E-05
     7      (1,41,26)            -5.00000000E-05
     8      (1,4,39)             -5.00000000E-05
     9      (1,27,3)             -5.00000000E-05
     10     (1,46,46)            -5.00000000E-05
 -----------------------------------------------




 WEL PACKAGE (WEL2) FLOW RATES   PERIOD      2   STEP       44
 -----------------------------------------------
   NUMBER   CELLID                    RATE      
 -----------------------------------------------
     1      (1,17,26)             2.50000000E-04
     2      (1,33,26)             2.50000000E-04
 -----------------------------------------------




 HEAD WILL BE SAVED ON UNIT 1028 AT END OF TIME STEP   44, STRESS PERIOD    2


  VOLUME BUDGET FOR ENTIRE MODEL AT END OF TIME STEP   44, STRESS PERIOD   2
  ---------------------------------------------------------------------------------------------------

     CUMULATIVE VOLUME      L**3       RATES FOR THIS TIME STEP      L**3/T          PACKAGE NAME    
     ------------------                 ------------------------                     ----------------

           IN:                                      IN:
           ---                                      ---
              STO-SS =           0.0000                STO-SS =           0.0000     STORAGE                          
                 WEL =           0.0000                   WEL =           0.0000     WEL1                             
                 WEL =           0.1440                   WEL =       5.0000E-04     WEL2                             

            TOTAL IN =           0.1440              TOTAL IN =       5.0000E-04

          OUT:                                     OUT:
          ----                                     ----
              STO-SS =           0.0000                STO-SS =           0.0000     STORAGE                          
                 WEL =           0.1440                   WEL =       5.0000E-04     WEL1                             
                 WEL =           0.0000                   WEL =           0.0000     WEL2                             

           TOTAL OUT =           0.1440             TOTAL OUT =       5.0000E-04

            IN - OUT =       4.0000E-11              IN - OUT =      -1.0842E-19

 PERCENT DISCREPANCY =           0.00     PERCENT DISCREPANCY =          -0.00




         TIME SUMMARY AT END OF TIME STEP   44 IN STRESS PERIOD    2
                    SECONDS     MINUTES      HOURS       DAYS        YEARS
                    -----------------------------------------------------------
   TIME STEP LENGTH 1.72800E+05  2880.0      48.000      2.0000     5.47570E-03
 STRESS PERIOD TIME 7.60320E+06 1.26720E+05  2112.0      88.000     0.24093    
         TOTAL TIME 2.48832E+07 4.14720E+05  6912.0      288.00     0.78850    


end timestep


start timestep kper="2" kstp="45" mode="normal"

 UBDSV1 SAVING           STO-SS ON UNIT   1027 AT TIME STEP     45, STRESS PERIOD      2
 UBDSV1 SAVING     FLOW-JA-FACE ON UNIT   1027 AT TIME STEP     45, STRESS PERIOD      2

 WEL PACKAGE (WEL1) FLOW RATES   PERIOD      2   STEP       45
 -----------------------------------------------
   NUMBER   CELLID                    RATE      
 -----------------------------------------------
     1      (1,17,17)            -5.00000000E-05
     2      (1,33,17)            -5.00000000E-05
     3      (1,9,26)             -5.00000000E-05
     4      (1,17,35)            -5.00000000E-05
     5      (1,33,35)            -5.00000000E-05
     6      (1,26,26)            -5.00000000E-05
     7      (1,41,26)            -5.00000000E-05
     8      (1,4,39)             -5.00000000E-05
     9      (1,27,3)             -5.00000000E-05
     10     (1,46,46)            -5.00000000E-05
 -----------------------------------------------




 WEL PACKAGE (WEL2) FLOW RATES   PERIOD      2   STEP       45
 -----------------------------------------------
   NUMBER   CELLID                    RATE      
 -----------------------------------------------
     1      (1,17,26)             2.50000000E-04
     2      (1,33,26)             2.50000000E-04
 -----------------------------------------------




 HEAD WILL BE SAVED ON UNIT 1028 AT END OF TIME STEP   45, STRESS PERIOD    2


  VOLUME BUDGET FOR ENTIRE MODEL AT END OF TIME STEP   45, STRESS PERIOD   2
  ---------------------------------------------------------------------------------------------------

     CUMULATIVE VOLUME      L**3       RATES FOR THIS TIME STEP      L**3/T          PACKAGE NAME    
     ------------------                 ------------------------                     ----------------

           IN:                                      IN:
           ---                                      ---
              STO-SS =           0.0000                STO-SS =           0.0000     STORAGE                          
                 WEL =           0.0000                   WEL =           0.0000     WEL1                             
                 WEL =           0.1450                   WEL =       5.0000E-04     WEL2                             

            TOTAL IN =           0.1450              TOTAL IN =       5.0000E-04

          OUT:                                     OUT:
          ----                                     ----
              STO-SS =           0.0000                STO-SS =           0.0000     STORAGE                          
                 WEL =           0.1450                   WEL =       5.0000E-04     WEL1                             
                 WEL =           0.0000                   WEL =           0.0000     WEL2                             

           TOTAL OUT =           0.1450             TOTAL OUT =       5.0000E-04

            IN - OUT =       4.0000E-11              IN - OUT =      -1.0842E-19

 PERCENT DISCREPANCY =           0.00     PERCENT DISCREPANCY =          -0.00




         TIME SUMMARY AT END OF TIME STEP   45 IN STRESS PERIOD    2
                    SECONDS     MINUTES      HOURS       DAYS        YEARS
                    -----------------------------------------------------------
   TIME STEP LENGTH 1.72800E+05  2880.0      48.000      2.0000     5.47570E-03
 STRESS PERIOD TIME 7.77600E+06 1.29600E+05  2160.0      90.000     0.24641    
         TOTAL TIME 2.50560E+07 4.17600E+05  6960.0      290.00     0.79398    


end timestep


start timestep kper="2" kstp="46" mode="normal"

 UBDSV1 SAVING           STO-SS ON UNIT   1027 AT TIME STEP     46, STRESS PERIOD      2
 UBDSV1 SAVING     FLOW-JA-FACE ON UNIT   1027 AT TIME STEP     46, STRESS PERIOD      2

 WEL PACKAGE (WEL1) FLOW RATES   PERIOD      2   STEP       46
 -----------------------------------------------
   NUMBER   CELLID                    RATE      
 -----------------------------------------------
     1      (1,17,17)            -5.00000000E-05
     2      (1,33,17)            -5.00000000E-05
     3      (1,9,26)             -5.00000000E-05
     4      (1,17,35)            -5.00000000E-05
     5      (1,33,35)            -5.00000000E-05
     6      (1,26,26)            -5.00000000E-05
     7      (1,41,26)            -5.00000000E-05
     8      (1,4,39)             -5.00000000E-05
     9      (1,27,3)             -5.00000000E-05
     10     (1,46,46)            -5.00000000E-05
 -----------------------------------------------




 WEL PACKAGE (WEL2) FLOW RATES   PERIOD      2   STEP       46
 -----------------------------------------------
   NUMBER   CELLID                    RATE      
 -----------------------------------------------
     1      (1,17,26)             2.50000000E-04
     2      (1,33,26)             2.50000000E-04
 -----------------------------------------------




 HEAD WILL BE SAVED ON UNIT 1028 AT END OF TIME STEP   46, STRESS PERIOD    2


  VOLUME BUDGET FOR ENTIRE MODEL AT END OF TIME STEP   46, STRESS PERIOD   2
  ---------------------------------------------------------------------------------------------------

     CUMULATIVE VOLUME      L**3       RATES FOR THIS TIME STEP      L**3/T          PACKAGE NAME    
     ------------------                 ------------------------                     ----------------

           IN:                                      IN:
           ---                                      ---
              STO-SS =           0.0000                STO-SS =           0.0000     STORAGE                          
                 WEL =           0.0000                   WEL =           0.0000     WEL1                             
                 WEL =           0.1460                   WEL =       5.0000E-04     WEL2                             

            TOTAL IN =           0.1460              TOTAL IN =       5.0000E-04

          OUT:                                     OUT:
          ----                                     ----
              STO-SS =           0.0000                STO-SS =           0.0000     STORAGE                          
                 WEL =           0.1460                   WEL =       5.0000E-04     WEL1                             
                 WEL =           0.0000                   WEL =           0.0000     WEL2                             

           TOTAL OUT =           0.1460             TOTAL OUT =       5.0000E-04

            IN - OUT =       4.0000E-11              IN - OUT =      -1.0842E-19

 PERCENT DISCREPANCY =           0.00     PERCENT DISCREPANCY =          -0.00




         TIME SUMMARY AT END OF TIME STEP   46 IN STRESS PERIOD    2
                    SECONDS     MINUTES      HOURS       DAYS        YEARS
                    -----------------------------------------------------------
   TIME STEP LENGTH 1.72800E+05  2880.0      48.000      2.0000     5.47570E-03
 STRESS PERIOD TIME 7.94880E+06 1.32480E+05  2208.0      92.000     0.25188    
         TOTAL TIME 2.52288E+07 4.20480E+05  7008.0      292.00     0.79945    


end timestep


start timestep kper="2" kstp="47" mode="normal"

 UBDSV1 SAVING           STO-SS ON UNIT   1027 AT TIME STEP     47, STRESS PERIOD      2
 UBDSV1 SAVING     FLOW-JA-FACE ON UNIT   1027 AT TIME STEP     47, STRESS PERIOD      2

 WEL PACKAGE (WEL1) FLOW RATES   PERIOD      2   STEP       47
 -----------------------------------------------
   NUMBER   CELLID                    RATE      
 -----------------------------------------------
     1      (1,17,17)            -5.00000000E-05
     2      (1,33,17)            -5.00000000E-05
     3      (1,9,26)             -5.00000000E-05
     4      (1,17,35)            -5.00000000E-05
     5      (1,33,35)            -5.00000000E-05
     6      (1,26,26)            -5.00000000E-05
     7      (1,41,26)            -5.00000000E-05
     8      (1,4,39)             -5.00000000E-05
     9      (1,27,3)             -5.00000000E-05
     10     (1,46,46)            -5.00000000E-05
 -----------------------------------------------




 WEL PACKAGE (WEL2) FLOW RATES   PERIOD      2   STEP       47
 -----------------------------------------------
   NUMBER   CELLID                    RATE      
 -----------------------------------------------
     1      (1,17,26)             2.50000000E-04
     2      (1,33,26)             2.50000000E-04
 -----------------------------------------------




 HEAD WILL BE SAVED ON UNIT 1028 AT END OF TIME STEP   47, STRESS PERIOD    2


  VOLUME BUDGET FOR ENTIRE MODEL AT END OF TIME STEP   47, STRESS PERIOD   2
  ---------------------------------------------------------------------------------------------------

     CUMULATIVE VOLUME      L**3       RATES FOR THIS TIME STEP      L**3/T          PACKAGE NAME    
     ------------------                 ------------------------                     ----------------

           IN:                                      IN:
           ---                                      ---
              STO-SS =           0.0000                STO-SS =           0.0000     STORAGE                          
                 WEL =           0.0000                   WEL =           0.0000     WEL1                             
                 WEL =           0.1470                   WEL =       5.0000E-04     WEL2                             

            TOTAL IN =           0.1470              TOTAL IN =       5.0000E-04

          OUT:                                     OUT:
          ----                                     ----
              STO-SS =           0.0000                STO-SS =           0.0000     STORAGE                          
                 WEL =           0.1470                   WEL =       5.0000E-04     WEL1                             
                 WEL =           0.0000                   WEL =           0.0000     WEL2                             

           TOTAL OUT =           0.1470             TOTAL OUT =       5.0000E-04

            IN - OUT =       4.0000E-11              IN - OUT =      -1.0842E-19

 PERCENT DISCREPANCY =           0.00     PERCENT DISCREPANCY =          -0.00




         TIME SUMMARY AT END OF TIME STEP   47 IN STRESS PERIOD    2
                    SECONDS     MINUTES      HOURS       DAYS        YEARS
                    -----------------------------------------------------------
   TIME STEP LENGTH 1.72800E+05  2880.0      48.000      2.0000     5.47570E-03
 STRESS PERIOD TIME 8.12160E+06 1.35360E+05  2256.0      94.000     0.25736    
         TOTAL TIME 2.54016E+07 4.23360E+05  7056.0      294.00     0.80493    


end timestep


start timestep kper="2" kstp="48" mode="normal"

 UBDSV1 SAVING           STO-SS ON UNIT   1027 AT TIME STEP     48, STRESS PERIOD      2
 UBDSV1 SAVING     FLOW-JA-FACE ON UNIT   1027 AT TIME STEP     48, STRESS PERIOD      2

 WEL PACKAGE (WEL1) FLOW RATES   PERIOD      2   STEP       48
 -----------------------------------------------
   NUMBER   CELLID                    RATE      
 -----------------------------------------------
     1      (1,17,17)            -5.00000000E-05
     2      (1,33,17)            -5.00000000E-05
     3      (1,9,26)             -5.00000000E-05
     4      (1,17,35)            -5.00000000E-05
     5      (1,33,35)            -5.00000000E-05
     6      (1,26,26)            -5.00000000E-05
     7      (1,41,26)            -5.00000000E-05
     8      (1,4,39)             -5.00000000E-05
     9      (1,27,3)             -5.00000000E-05
     10     (1,46,46)            -5.00000000E-05
 -----------------------------------------------




 WEL PACKAGE (WEL2) FLOW RATES   PERIOD      2   STEP       48
 -----------------------------------------------
   NUMBER   CELLID                    RATE      
 -----------------------------------------------
     1      (1,17,26)             2.50000000E-04
     2      (1,33,26)             2.50000000E-04
 -----------------------------------------------




 HEAD WILL BE SAVED ON UNIT 1028 AT END OF TIME STEP   48, STRESS PERIOD    2


  VOLUME BUDGET FOR ENTIRE MODEL AT END OF TIME STEP   48, STRESS PERIOD   2
  ---------------------------------------------------------------------------------------------------

     CUMULATIVE VOLUME      L**3       RATES FOR THIS TIME STEP      L**3/T          PACKAGE NAME    
     ------------------                 ------------------------                     ----------------

           IN:                                      IN:
           ---                                      ---
              STO-SS =           0.0000                STO-SS =           0.0000     STORAGE                          
                 WEL =           0.0000                   WEL =           0.0000     WEL1                             
                 WEL =           0.1480                   WEL =       5.0000E-04     WEL2                             

            TOTAL IN =           0.1480              TOTAL IN =       5.0000E-04

          OUT:                                     OUT:
          ----                                     ----
              STO-SS =           0.0000                STO-SS =           0.0000     STORAGE                          
                 WEL =           0.1480                   WEL =       5.0000E-04     WEL1                             
                 WEL =           0.0000                   WEL =           0.0000     WEL2                             

           TOTAL OUT =           0.1480             TOTAL OUT =       5.0000E-04

            IN - OUT =       4.0000E-11              IN - OUT =      -1.0842E-19

 PERCENT DISCREPANCY =           0.00     PERCENT DISCREPANCY =          -0.00




         TIME SUMMARY AT END OF TIME STEP   48 IN STRESS PERIOD    2
                    SECONDS     MINUTES      HOURS       DAYS        YEARS
                    -----------------------------------------------------------
   TIME STEP LENGTH 1.72800E+05  2880.0      48.000      2.0000     5.47570E-03
 STRESS PERIOD TIME 8.29440E+06 1.38240E+05  2304.0      96.000     0.26283    
         TOTAL TIME 2.55744E+07 4.26240E+05  7104.0      296.00     0.81040    


end timestep


start timestep kper="2" kstp="49" mode="normal"

 UBDSV1 SAVING           STO-SS ON UNIT   1027 AT TIME STEP     49, STRESS PERIOD      2
 UBDSV1 SAVING     FLOW-JA-FACE ON UNIT   1027 AT TIME STEP     49, STRESS PERIOD      2

 WEL PACKAGE (WEL1) FLOW RATES   PERIOD      2   STEP       49
 -----------------------------------------------
   NUMBER   CELLID                    RATE      
 -----------------------------------------------
     1      (1,17,17)            -5.00000000E-05
     2      (1,33,17)            -5.00000000E-05
     3      (1,9,26)             -5.00000000E-05
     4      (1,17,35)            -5.00000000E-05
     5      (1,33,35)            -5.00000000E-05
     6      (1,26,26)            -5.00000000E-05
     7      (1,41,26)            -5.00000000E-05
     8      (1,4,39)             -5.00000000E-05
     9      (1,27,3)             -5.00000000E-05
     10     (1,46,46)            -5.00000000E-05
 -----------------------------------------------




 WEL PACKAGE (WEL2) FLOW RATES   PERIOD      2   STEP       49
 -----------------------------------------------
   NUMBER   CELLID                    RATE      
 -----------------------------------------------
     1      (1,17,26)             2.50000000E-04
     2      (1,33,26)             2.50000000E-04
 -----------------------------------------------




 HEAD WILL BE SAVED ON UNIT 1028 AT END OF TIME STEP   49, STRESS PERIOD    2


  VOLUME BUDGET FOR ENTIRE MODEL AT END OF TIME STEP   49, STRESS PERIOD   2
  ---------------------------------------------------------------------------------------------------

     CUMULATIVE VOLUME      L**3       RATES FOR THIS TIME STEP      L**3/T          PACKAGE NAME    
     ------------------                 ------------------------                     ----------------

           IN:                                      IN:
           ---                                      ---
              STO-SS =           0.0000                STO-SS =           0.0000     STORAGE                          
                 WEL =           0.0000                   WEL =           0.0000     WEL1                             
                 WEL =           0.1490                   WEL =       5.0000E-04     WEL2                             

            TOTAL IN =           0.1490              TOTAL IN =       5.0000E-04

          OUT:                                     OUT:
          ----                                     ----
              STO-SS =           0.0000                STO-SS =           0.0000     STORAGE                          
                 WEL =           0.1490                   WEL =       5.0000E-04     WEL1                             
                 WEL =           0.0000                   WEL =           0.0000     WEL2                             

           TOTAL OUT =           0.1490             TOTAL OUT =       5.0000E-04

            IN - OUT =       4.0000E-11              IN - OUT =      -1.0842E-19

 PERCENT DISCREPANCY =           0.00     PERCENT DISCREPANCY =          -0.00




         TIME SUMMARY AT END OF TIME STEP   49 IN STRESS PERIOD    2
                    SECONDS     MINUTES      HOURS       DAYS        YEARS
                    -----------------------------------------------------------
   TIME STEP LENGTH 1.72800E+05  2880.0      48.000      2.0000     5.47570E-03
 STRESS PERIOD TIME 8.46720E+06 1.41120E+05  2352.0      98.000     0.26831    
         TOTAL TIME 2.57472E+07 4.29120E+05  7152.0      298.00     0.81588    


end timestep


start timestep kper="2" kstp="50" mode="normal"

 UBDSV1 SAVING           STO-SS ON UNIT   1027 AT TIME STEP     50, STRESS PERIOD      2
 UBDSV1 SAVING     FLOW-JA-FACE ON UNIT   1027 AT TIME STEP     50, STRESS PERIOD      2

 WEL PACKAGE (WEL1) FLOW RATES   PERIOD      2   STEP       50
 -----------------------------------------------
   NUMBER   CELLID                    RATE      
 -----------------------------------------------
     1      (1,17,17)            -5.00000000E-05
     2      (1,33,17)            -5.00000000E-05
     3      (1,9,26)             -5.00000000E-05
     4      (1,17,35)            -5.00000000E-05
     5      (1,33,35)            -5.00000000E-05
     6      (1,26,26)            -5.00000000E-05
     7      (1,41,26)            -5.00000000E-05
     8      (1,4,39)             -5.00000000E-05
     9      (1,27,3)             -5.00000000E-05
     10     (1,46,46)            -5.00000000E-05
 -----------------------------------------------




 WEL PACKAGE (WEL2) FLOW RATES   PERIOD      2   STEP       50
 -----------------------------------------------
   NUMBER   CELLID                    RATE      
 -----------------------------------------------
     1      (1,17,26)             2.50000000E-04
     2      (1,33,26)             2.50000000E-04
 -----------------------------------------------




 HEAD WILL BE SAVED ON UNIT 1028 AT END OF TIME STEP   50, STRESS PERIOD    2


  VOLUME BUDGET FOR ENTIRE MODEL AT END OF TIME STEP   50, STRESS PERIOD   2
  ---------------------------------------------------------------------------------------------------

     CUMULATIVE VOLUME      L**3       RATES FOR THIS TIME STEP      L**3/T          PACKAGE NAME    
     ------------------                 ------------------------                     ----------------

           IN:                                      IN:
           ---                                      ---
              STO-SS =           0.0000                STO-SS =           0.0000     STORAGE                          
                 WEL =           0.0000                   WEL =           0.0000     WEL1                             
                 WEL =           0.1500                   WEL =       5.0000E-04     WEL2                             

            TOTAL IN =           0.1500              TOTAL IN =       5.0000E-04

          OUT:                                     OUT:
          ----                                     ----
              STO-SS =           0.0000                STO-SS =           0.0000     STORAGE                          
                 WEL =           0.1500                   WEL =       5.0000E-04     WEL1                             
                 WEL =           0.0000                   WEL =           0.0000     WEL2                             

           TOTAL OUT =           0.1500             TOTAL OUT =       5.0000E-04

            IN - OUT =       4.0000E-11              IN - OUT =      -1.0842E-19

 PERCENT DISCREPANCY =           0.00     PERCENT DISCREPANCY =          -0.00




         TIME SUMMARY AT END OF TIME STEP   50 IN STRESS PERIOD    2
                    SECONDS     MINUTES      HOURS       DAYS        YEARS
                    -----------------------------------------------------------
   TIME STEP LENGTH 1.72800E+05  2880.0      48.000      2.0000     5.47570E-03
 STRESS PERIOD TIME 8.64000E+06 1.44000E+05  2400.0      100.00     0.27379    
         TOTAL TIME 2.59200E+07 4.32000E+05  7200.0      300.00     0.82136    


end timestep


start timestep kper="2" kstp="51" mode="normal"

 UBDSV1 SAVING           STO-SS ON UNIT   1027 AT TIME STEP     51, STRESS PERIOD      2
 UBDSV1 SAVING     FLOW-JA-FACE ON UNIT   1027 AT TIME STEP     51, STRESS PERIOD      2

 WEL PACKAGE (WEL1) FLOW RATES   PERIOD      2   STEP       51
 -----------------------------------------------
   NUMBER   CELLID                    RATE      
 -----------------------------------------------
     1      (1,17,17)            -5.00000000E-05
     2      (1,33,17)            -5.00000000E-05
     3      (1,9,26)             -5.00000000E-05
     4      (1,17,35)            -5.00000000E-05
     5      (1,33,35)            -5.00000000E-05
     6      (1,26,26)            -5.00000000E-05
     7      (1,41,26)            -5.00000000E-05
     8      (1,4,39)             -5.00000000E-05
     9      (1,27,3)             -5.00000000E-05
     10     (1,46,46)            -5.00000000E-05
 -----------------------------------------------




 WEL PACKAGE (WEL2) FLOW RATES   PERIOD      2   STEP       51
 -----------------------------------------------
   NUMBER   CELLID                    RATE      
 -----------------------------------------------
     1      (1,17,26)             2.50000000E-04
     2      (1,33,26)             2.50000000E-04
 -----------------------------------------------




 HEAD WILL BE SAVED ON UNIT 1028 AT END OF TIME STEP   51, STRESS PERIOD    2


  VOLUME BUDGET FOR ENTIRE MODEL AT END OF TIME STEP   51, STRESS PERIOD   2
  ---------------------------------------------------------------------------------------------------

     CUMULATIVE VOLUME      L**3       RATES FOR THIS TIME STEP      L**3/T          PACKAGE NAME    
     ------------------                 ------------------------                     ----------------

           IN:                                      IN:
           ---                                      ---
              STO-SS =           0.0000                STO-SS =           0.0000     STORAGE                          
                 WEL =           0.0000                   WEL =           0.0000     WEL1                             
                 WEL =           0.1510                   WEL =       5.0000E-04     WEL2                             

            TOTAL IN =           0.1510              TOTAL IN =       5.0000E-04

          OUT:                                     OUT:
          ----                                     ----
              STO-SS =           0.0000                STO-SS =           0.0000     STORAGE                          
                 WEL =           0.1510                   WEL =       5.0000E-04     WEL1                             
                 WEL =           0.0000                   WEL =           0.0000     WEL2                             

           TOTAL OUT =           0.1510             TOTAL OUT =       5.0000E-04

            IN - OUT =       4.0000E-11              IN - OUT =      -1.0842E-19

 PERCENT DISCREPANCY =           0.00     PERCENT DISCREPANCY =          -0.00




         TIME SUMMARY AT END OF TIME STEP   51 IN STRESS PERIOD    2
                    SECONDS     MINUTES      HOURS       DAYS        YEARS
                    -----------------------------------------------------------
   TIME STEP LENGTH 1.72800E+05  2880.0      48.000      2.0000     5.47570E-03
 STRESS PERIOD TIME 8.81280E+06 1.46880E+05  2448.0      102.00     0.27926    
         TOTAL TIME 2.60928E+07 4.34880E+05  7248.0      302.00     0.82683    


end timestep


start timestep kper="2" kstp="52" mode="normal"

 UBDSV1 SAVING           STO-SS ON UNIT   1027 AT TIME STEP     52, STRESS PERIOD      2
 UBDSV1 SAVING     FLOW-JA-FACE ON UNIT   1027 AT TIME STEP     52, STRESS PERIOD      2

 WEL PACKAGE (WEL1) FLOW RATES   PERIOD      2   STEP       52
 -----------------------------------------------
   NUMBER   CELLID                    RATE      
 -----------------------------------------------
     1      (1,17,17)            -5.00000000E-05
     2      (1,33,17)            -5.00000000E-05
     3      (1,9,26)             -5.00000000E-05
     4      (1,17,35)            -5.00000000E-05
     5      (1,33,35)            -5.00000000E-05
     6      (1,26,26)            -5.00000000E-05
     7      (1,41,26)            -5.00000000E-05
     8      (1,4,39)             -5.00000000E-05
     9      (1,27,3)             -5.00000000E-05
     10     (1,46,46)            -5.00000000E-05
 -----------------------------------------------




 WEL PACKAGE (WEL2) FLOW RATES   PERIOD      2   STEP       52
 -----------------------------------------------
   NUMBER   CELLID                    RATE      
 -----------------------------------------------
     1      (1,17,26)             2.50000000E-04
     2      (1,33,26)             2.50000000E-04
 -----------------------------------------------




 HEAD WILL BE SAVED ON UNIT 1028 AT END OF TIME STEP   52, STRESS PERIOD    2


  VOLUME BUDGET FOR ENTIRE MODEL AT END OF TIME STEP   52, STRESS PERIOD   2
  ---------------------------------------------------------------------------------------------------

     CUMULATIVE VOLUME      L**3       RATES FOR THIS TIME STEP      L**3/T          PACKAGE NAME    
     ------------------                 ------------------------                     ----------------

           IN:                                      IN:
           ---                                      ---
              STO-SS =           0.0000                STO-SS =           0.0000     STORAGE                          
                 WEL =           0.0000                   WEL =           0.0000     WEL1                             
                 WEL =           0.1520                   WEL =       5.0000E-04     WEL2                             

            TOTAL IN =           0.1520              TOTAL IN =       5.0000E-04

          OUT:                                     OUT:
          ----                                     ----
              STO-SS =           0.0000                STO-SS =           0.0000     STORAGE                          
                 WEL =           0.1520                   WEL =       5.0000E-04     WEL1                             
                 WEL =           0.0000                   WEL =           0.0000     WEL2                             

           TOTAL OUT =           0.1520             TOTAL OUT =       5.0000E-04

            IN - OUT =       4.0000E-11              IN - OUT =      -1.0842E-19

 PERCENT DISCREPANCY =           0.00     PERCENT DISCREPANCY =          -0.00




         TIME SUMMARY AT END OF TIME STEP   52 IN STRESS PERIOD    2
                    SECONDS     MINUTES      HOURS       DAYS        YEARS
                    -----------------------------------------------------------
   TIME STEP LENGTH 1.72800E+05  2880.0      48.000      2.0000     5.47570E-03
 STRESS PERIOD TIME 8.98560E+06 1.49760E+05  2496.0      104.00     0.28474    
         TOTAL TIME 2.62656E+07 4.37760E+05  7296.0      304.00     0.83231    


end timestep


start timestep kper="2" kstp="53" mode="normal"

 UBDSV1 SAVING           STO-SS ON UNIT   1027 AT TIME STEP     53, STRESS PERIOD      2
 UBDSV1 SAVING     FLOW-JA-FACE ON UNIT   1027 AT TIME STEP     53, STRESS PERIOD      2

 WEL PACKAGE (WEL1) FLOW RATES   PERIOD      2   STEP       53
 -----------------------------------------------
   NUMBER   CELLID                    RATE      
 -----------------------------------------------
     1      (1,17,17)            -5.00000000E-05
     2      (1,33,17)            -5.00000000E-05
     3      (1,9,26)             -5.00000000E-05
     4      (1,17,35)            -5.00000000E-05
     5      (1,33,35)            -5.00000000E-05
     6      (1,26,26)            -5.00000000E-05
     7      (1,41,26)            -5.00000000E-05
     8      (1,4,39)             -5.00000000E-05
     9      (1,27,3)             -5.00000000E-05
     10     (1,46,46)            -5.00000000E-05
 -----------------------------------------------




 WEL PACKAGE (WEL2) FLOW RATES   PERIOD      2   STEP       53
 -----------------------------------------------
   NUMBER   CELLID                    RATE      
 -----------------------------------------------
     1      (1,17,26)             2.50000000E-04
     2      (1,33,26)             2.50000000E-04
 -----------------------------------------------




 HEAD WILL BE SAVED ON UNIT 1028 AT END OF TIME STEP   53, STRESS PERIOD    2


  VOLUME BUDGET FOR ENTIRE MODEL AT END OF TIME STEP   53, STRESS PERIOD   2
  ---------------------------------------------------------------------------------------------------

     CUMULATIVE VOLUME      L**3       RATES FOR THIS TIME STEP      L**3/T          PACKAGE NAME    
     ------------------                 ------------------------                     ----------------

           IN:                                      IN:
           ---                                      ---
              STO-SS =           0.0000                STO-SS =           0.0000     STORAGE                          
                 WEL =           0.0000                   WEL =           0.0000     WEL1                             
                 WEL =           0.1530                   WEL =       5.0000E-04     WEL2                             

            TOTAL IN =           0.1530              TOTAL IN =       5.0000E-04

          OUT:                                     OUT:
          ----                                     ----
              STO-SS =           0.0000                STO-SS =           0.0000     STORAGE                          
                 WEL =           0.1530                   WEL =       5.0000E-04     WEL1                             
                 WEL =           0.0000                   WEL =           0.0000     WEL2                             

           TOTAL OUT =           0.1530             TOTAL OUT =       5.0000E-04

            IN - OUT =       4.0000E-11              IN - OUT =      -1.0842E-19

 PERCENT DISCREPANCY =           0.00     PERCENT DISCREPANCY =          -0.00




         TIME SUMMARY AT END OF TIME STEP   53 IN STRESS PERIOD    2
                    SECONDS     MINUTES      HOURS       DAYS        YEARS
                    -----------------------------------------------------------
   TIME STEP LENGTH 1.72800E+05  2880.0      48.000      2.0000     5.47570E-03
 STRESS PERIOD TIME 9.15840E+06 1.52640E+05  2544.0      106.00     0.29021    
         TOTAL TIME 2.64384E+07 4.40640E+05  7344.0      306.00     0.83778    


end timestep


start timestep kper="2" kstp="54" mode="normal"

 UBDSV1 SAVING           STO-SS ON UNIT   1027 AT TIME STEP     54, STRESS PERIOD      2
 UBDSV1 SAVING     FLOW-JA-FACE ON UNIT   1027 AT TIME STEP     54, STRESS PERIOD      2

 WEL PACKAGE (WEL1) FLOW RATES   PERIOD      2   STEP       54
 -----------------------------------------------
   NUMBER   CELLID                    RATE      
 -----------------------------------------------
     1      (1,17,17)            -5.00000000E-05
     2      (1,33,17)            -5.00000000E-05
     3      (1,9,26)             -5.00000000E-05
     4      (1,17,35)            -5.00000000E-05
     5      (1,33,35)            -5.00000000E-05
     6      (1,26,26)            -5.00000000E-05
     7      (1,41,26)            -5.00000000E-05
     8      (1,4,39)             -5.00000000E-05
     9      (1,27,3)             -5.00000000E-05
     10     (1,46,46)            -5.00000000E-05
 -----------------------------------------------




 WEL PACKAGE (WEL2) FLOW RATES   PERIOD      2   STEP       54
 -----------------------------------------------
   NUMBER   CELLID                    RATE      
 -----------------------------------------------
     1      (1,17,26)             2.50000000E-04
     2      (1,33,26)             2.50000000E-04
 -----------------------------------------------




 HEAD WILL BE SAVED ON UNIT 1028 AT END OF TIME STEP   54, STRESS PERIOD    2


  VOLUME BUDGET FOR ENTIRE MODEL AT END OF TIME STEP   54, STRESS PERIOD   2
  ---------------------------------------------------------------------------------------------------

     CUMULATIVE VOLUME      L**3       RATES FOR THIS TIME STEP      L**3/T          PACKAGE NAME    
     ------------------                 ------------------------                     ----------------

           IN:                                      IN:
           ---                                      ---
              STO-SS =           0.0000                STO-SS =           0.0000     STORAGE                          
                 WEL =           0.0000                   WEL =           0.0000     WEL1                             
                 WEL =           0.1540                   WEL =       5.0000E-04     WEL2                             

            TOTAL IN =           0.1540              TOTAL IN =       5.0000E-04

          OUT:                                     OUT:
          ----                                     ----
              STO-SS =           0.0000                STO-SS =           0.0000     STORAGE                          
                 WEL =           0.1540                   WEL =       5.0000E-04     WEL1                             
                 WEL =           0.0000                   WEL =           0.0000     WEL2                             

           TOTAL OUT =           0.1540             TOTAL OUT =       5.0000E-04

            IN - OUT =       4.0000E-11              IN - OUT =      -1.0842E-19

 PERCENT DISCREPANCY =           0.00     PERCENT DISCREPANCY =          -0.00




         TIME SUMMARY AT END OF TIME STEP   54 IN STRESS PERIOD    2
                    SECONDS     MINUTES      HOURS       DAYS        YEARS
                    -----------------------------------------------------------
   TIME STEP LENGTH 1.72800E+05  2880.0      48.000      2.0000     5.47570E-03
 STRESS PERIOD TIME 9.33120E+06 1.55520E+05  2592.0      108.00     0.29569    
         TOTAL TIME 2.66112E+07 4.43520E+05  7392.0      308.00     0.84326    


end timestep


start timestep kper="2" kstp="55" mode="normal"

 UBDSV1 SAVING           STO-SS ON UNIT   1027 AT TIME STEP     55, STRESS PERIOD      2
 UBDSV1 SAVING     FLOW-JA-FACE ON UNIT   1027 AT TIME STEP     55, STRESS PERIOD      2

 WEL PACKAGE (WEL1) FLOW RATES   PERIOD      2   STEP       55
 -----------------------------------------------
   NUMBER   CELLID                    RATE      
 -----------------------------------------------
     1      (1,17,17)            -5.00000000E-05
     2      (1,33,17)            -5.00000000E-05
     3      (1,9,26)             -5.00000000E-05
     4      (1,17,35)            -5.00000000E-05
     5      (1,33,35)            -5.00000000E-05
     6      (1,26,26)            -5.00000000E-05
     7      (1,41,26)            -5.00000000E-05
     8      (1,4,39)             -5.00000000E-05
     9      (1,27,3)             -5.00000000E-05
     10     (1,46,46)            -5.00000000E-05
 -----------------------------------------------




 WEL PACKAGE (WEL2) FLOW RATES   PERIOD      2   STEP       55
 -----------------------------------------------
   NUMBER   CELLID                    RATE      
 -----------------------------------------------
     1      (1,17,26)             2.50000000E-04
     2      (1,33,26)             2.50000000E-04
 -----------------------------------------------




 HEAD WILL BE SAVED ON UNIT 1028 AT END OF TIME STEP   55, STRESS PERIOD    2


  VOLUME BUDGET FOR ENTIRE MODEL AT END OF TIME STEP   55, STRESS PERIOD   2
  ---------------------------------------------------------------------------------------------------

     CUMULATIVE VOLUME      L**3       RATES FOR THIS TIME STEP      L**3/T          PACKAGE NAME    
     ------------------                 ------------------------                     ----------------

           IN:                                      IN:
           ---                                      ---
              STO-SS =           0.0000                STO-SS =           0.0000     STORAGE                          
                 WEL =           0.0000                   WEL =           0.0000     WEL1                             
                 WEL =           0.1550                   WEL =       5.0000E-04     WEL2                             

            TOTAL IN =           0.1550              TOTAL IN =       5.0000E-04

          OUT:                                     OUT:
          ----                                     ----
              STO-SS =           0.0000                STO-SS =           0.0000     STORAGE                          
                 WEL =           0.1550                   WEL =       5.0000E-04     WEL1                             
                 WEL =           0.0000                   WEL =           0.0000     WEL2                             

           TOTAL OUT =           0.1550             TOTAL OUT =       5.0000E-04

            IN - OUT =       4.0000E-11              IN - OUT =      -1.0842E-19

 PERCENT DISCREPANCY =           0.00     PERCENT DISCREPANCY =          -0.00




         TIME SUMMARY AT END OF TIME STEP   55 IN STRESS PERIOD    2
                    SECONDS     MINUTES      HOURS       DAYS        YEARS
                    -----------------------------------------------------------
   TIME STEP LENGTH 1.72800E+05  2880.0      48.000      2.0000     5.47570E-03
 STRESS PERIOD TIME 9.50400E+06 1.58400E+05  2640.0      110.00     0.30116    
         TOTAL TIME 2.67840E+07 4.46400E+05  7440.0      310.00     0.84873    


end timestep


start timestep kper="2" kstp="56" mode="normal"

 UBDSV1 SAVING           STO-SS ON UNIT   1027 AT TIME STEP     56, STRESS PERIOD      2
 UBDSV1 SAVING     FLOW-JA-FACE ON UNIT   1027 AT TIME STEP     56, STRESS PERIOD      2

 WEL PACKAGE (WEL1) FLOW RATES   PERIOD      2   STEP       56
 -----------------------------------------------
   NUMBER   CELLID                    RATE      
 -----------------------------------------------
     1      (1,17,17)            -5.00000000E-05
     2      (1,33,17)            -5.00000000E-05
     3      (1,9,26)             -5.00000000E-05
     4      (1,17,35)            -5.00000000E-05
     5      (1,33,35)            -5.00000000E-05
     6      (1,26,26)            -5.00000000E-05
     7      (1,41,26)            -5.00000000E-05
     8      (1,4,39)             -5.00000000E-05
     9      (1,27,3)             -5.00000000E-05
     10     (1,46,46)            -5.00000000E-05
 -----------------------------------------------




 WEL PACKAGE (WEL2) FLOW RATES   PERIOD      2   STEP       56
 -----------------------------------------------
   NUMBER   CELLID                    RATE      
 -----------------------------------------------
     1      (1,17,26)             2.50000000E-04
     2      (1,33,26)             2.50000000E-04
 -----------------------------------------------




 HEAD WILL BE SAVED ON UNIT 1028 AT END OF TIME STEP   56, STRESS PERIOD    2


  VOLUME BUDGET FOR ENTIRE MODEL AT END OF TIME STEP   56, STRESS PERIOD   2
  ---------------------------------------------------------------------------------------------------

     CUMULATIVE VOLUME      L**3       RATES FOR THIS TIME STEP      L**3/T          PACKAGE NAME    
     ------------------                 ------------------------                     ----------------

           IN:                                      IN:
           ---                                      ---
              STO-SS =           0.0000                STO-SS =           0.0000     STORAGE                          
                 WEL =           0.0000                   WEL =           0.0000     WEL1                             
                 WEL =           0.1560                   WEL =       5.0000E-04     WEL2                             

            TOTAL IN =           0.1560              TOTAL IN =       5.0000E-04

          OUT:                                     OUT:
          ----                                     ----
              STO-SS =           0.0000                STO-SS =           0.0000     STORAGE                          
                 WEL =           0.1560                   WEL =       5.0000E-04     WEL1                             
                 WEL =           0.0000                   WEL =           0.0000     WEL2                             

           TOTAL OUT =           0.1560             TOTAL OUT =       5.0000E-04

            IN - OUT =       4.0000E-11              IN - OUT =      -1.0842E-19

 PERCENT DISCREPANCY =           0.00     PERCENT DISCREPANCY =          -0.00




         TIME SUMMARY AT END OF TIME STEP   56 IN STRESS PERIOD    2
                    SECONDS     MINUTES      HOURS       DAYS        YEARS
                    -----------------------------------------------------------
   TIME STEP LENGTH 1.72800E+05  2880.0      48.000      2.0000     5.47570E-03
 STRESS PERIOD TIME 9.67680E+06 1.61280E+05  2688.0      112.00     0.30664    
         TOTAL TIME 2.69568E+07 4.49280E+05  7488.0      312.00     0.85421    


end timestep


start timestep kper="2" kstp="57" mode="normal"

 UBDSV1 SAVING           STO-SS ON UNIT   1027 AT TIME STEP     57, STRESS PERIOD      2
 UBDSV1 SAVING     FLOW-JA-FACE ON UNIT   1027 AT TIME STEP     57, STRESS PERIOD      2

 WEL PACKAGE (WEL1) FLOW RATES   PERIOD      2   STEP       57
 -----------------------------------------------
   NUMBER   CELLID                    RATE      
 -----------------------------------------------
     1      (1,17,17)            -5.00000000E-05
     2      (1,33,17)            -5.00000000E-05
     3      (1,9,26)             -5.00000000E-05
     4      (1,17,35)            -5.00000000E-05
     5      (1,33,35)            -5.00000000E-05
     6      (1,26,26)            -5.00000000E-05
     7      (1,41,26)            -5.00000000E-05
     8      (1,4,39)             -5.00000000E-05
     9      (1,27,3)             -5.00000000E-05
     10     (1,46,46)            -5.00000000E-05
 -----------------------------------------------




 WEL PACKAGE (WEL2) FLOW RATES   PERIOD      2   STEP       57
 -----------------------------------------------
   NUMBER   CELLID                    RATE      
 -----------------------------------------------
     1      (1,17,26)             2.50000000E-04
     2      (1,33,26)             2.50000000E-04
 -----------------------------------------------




 HEAD WILL BE SAVED ON UNIT 1028 AT END OF TIME STEP   57, STRESS PERIOD    2


  VOLUME BUDGET FOR ENTIRE MODEL AT END OF TIME STEP   57, STRESS PERIOD   2
  ---------------------------------------------------------------------------------------------------

     CUMULATIVE VOLUME      L**3       RATES FOR THIS TIME STEP      L**3/T          PACKAGE NAME    
     ------------------                 ------------------------                     ----------------

           IN:                                      IN:
           ---                                      ---
              STO-SS =           0.0000                STO-SS =           0.0000     STORAGE                          
                 WEL =           0.0000                   WEL =           0.0000     WEL1                             
                 WEL =           0.1570                   WEL =       5.0000E-04     WEL2                             

            TOTAL IN =           0.1570              TOTAL IN =       5.0000E-04

          OUT:                                     OUT:
          ----                                     ----
              STO-SS =           0.0000                STO-SS =           0.0000     STORAGE                          
                 WEL =           0.1570                   WEL =       5.0000E-04     WEL1                             
                 WEL =           0.0000                   WEL =           0.0000     WEL2                             

           TOTAL OUT =           0.1570             TOTAL OUT =       5.0000E-04

            IN - OUT =       4.0000E-11              IN - OUT =      -1.0842E-19

 PERCENT DISCREPANCY =           0.00     PERCENT DISCREPANCY =          -0.00




         TIME SUMMARY AT END OF TIME STEP   57 IN STRESS PERIOD    2
                    SECONDS     MINUTES      HOURS       DAYS        YEARS
                    -----------------------------------------------------------
   TIME STEP LENGTH 1.72800E+05  2880.0      48.000      2.0000     5.47570E-03
 STRESS PERIOD TIME 9.84960E+06 1.64160E+05  2736.0      114.00     0.31211    
         TOTAL TIME 2.71296E+07 4.52160E+05  7536.0      314.00     0.85969    


end timestep


start timestep kper="2" kstp="58" mode="normal"

 UBDSV1 SAVING           STO-SS ON UNIT   1027 AT TIME STEP     58, STRESS PERIOD      2
 UBDSV1 SAVING     FLOW-JA-FACE ON UNIT   1027 AT TIME STEP     58, STRESS PERIOD      2

 WEL PACKAGE (WEL1) FLOW RATES   PERIOD      2   STEP       58
 -----------------------------------------------
   NUMBER   CELLID                    RATE      
 -----------------------------------------------
     1      (1,17,17)            -5.00000000E-05
     2      (1,33,17)            -5.00000000E-05
     3      (1,9,26)             -5.00000000E-05
     4      (1,17,35)            -5.00000000E-05
     5      (1,33,35)            -5.00000000E-05
     6      (1,26,26)            -5.00000000E-05
     7      (1,41,26)            -5.00000000E-05
     8      (1,4,39)             -5.00000000E-05
     9      (1,27,3)             -5.00000000E-05
     10     (1,46,46)            -5.00000000E-05
 -----------------------------------------------




 WEL PACKAGE (WEL2) FLOW RATES   PERIOD      2   STEP       58
 -----------------------------------------------
   NUMBER   CELLID                    RATE      
 -----------------------------------------------
     1      (1,17,26)             2.50000000E-04
     2      (1,33,26)             2.50000000E-04
 -----------------------------------------------




 HEAD WILL BE SAVED ON UNIT 1028 AT END OF TIME STEP   58, STRESS PERIOD    2


  VOLUME BUDGET FOR ENTIRE MODEL AT END OF TIME STEP   58, STRESS PERIOD   2
  ---------------------------------------------------------------------------------------------------

     CUMULATIVE VOLUME      L**3       RATES FOR THIS TIME STEP      L**3/T          PACKAGE NAME    
     ------------------                 ------------------------                     ----------------

           IN:                                      IN:
           ---                                      ---
              STO-SS =           0.0000                STO-SS =           0.0000     STORAGE                          
                 WEL =           0.0000                   WEL =           0.0000     WEL1                             
                 WEL =           0.1580                   WEL =       5.0000E-04     WEL2                             

            TOTAL IN =           0.1580              TOTAL IN =       5.0000E-04

          OUT:                                     OUT:
          ----                                     ----
              STO-SS =           0.0000                STO-SS =           0.0000     STORAGE                          
                 WEL =           0.1580                   WEL =       5.0000E-04     WEL1                             
                 WEL =           0.0000                   WEL =           0.0000     WEL2                             

           TOTAL OUT =           0.1580             TOTAL OUT =       5.0000E-04

            IN - OUT =       4.0000E-11              IN - OUT =      -1.0842E-19

 PERCENT DISCREPANCY =           0.00     PERCENT DISCREPANCY =          -0.00




         TIME SUMMARY AT END OF TIME STEP   58 IN STRESS PERIOD    2
                    SECONDS     MINUTES      HOURS       DAYS        YEARS
                    -----------------------------------------------------------
   TIME STEP LENGTH 1.72800E+05  2880.0      48.000      2.0000     5.47570E-03
 STRESS PERIOD TIME 1.00224E+07 1.67040E+05  2784.0      116.00     0.31759    
         TOTAL TIME 2.73024E+07 4.55040E+05  7584.0      316.00     0.86516    


end timestep


start timestep kper="2" kstp="59" mode="normal"

 UBDSV1 SAVING           STO-SS ON UNIT   1027 AT TIME STEP     59, STRESS PERIOD      2
 UBDSV1 SAVING     FLOW-JA-FACE ON UNIT   1027 AT TIME STEP     59, STRESS PERIOD      2

 WEL PACKAGE (WEL1) FLOW RATES   PERIOD      2   STEP       59
 -----------------------------------------------
   NUMBER   CELLID                    RATE      
 -----------------------------------------------
     1      (1,17,17)            -5.00000000E-05
     2      (1,33,17)            -5.00000000E-05
     3      (1,9,26)             -5.00000000E-05
     4      (1,17,35)            -5.00000000E-05
     5      (1,33,35)            -5.00000000E-05
     6      (1,26,26)            -5.00000000E-05
     7      (1,41,26)            -5.00000000E-05
     8      (1,4,39)             -5.00000000E-05
     9      (1,27,3)             -5.00000000E-05
     10     (1,46,46)            -5.00000000E-05
 -----------------------------------------------




 WEL PACKAGE (WEL2) FLOW RATES   PERIOD      2   STEP       59
 -----------------------------------------------
   NUMBER   CELLID                    RATE      
 -----------------------------------------------
     1      (1,17,26)             2.50000000E-04
     2      (1,33,26)             2.50000000E-04
 -----------------------------------------------




 HEAD WILL BE SAVED ON UNIT 1028 AT END OF TIME STEP   59, STRESS PERIOD    2


  VOLUME BUDGET FOR ENTIRE MODEL AT END OF TIME STEP   59, STRESS PERIOD   2
  ---------------------------------------------------------------------------------------------------

     CUMULATIVE VOLUME      L**3       RATES FOR THIS TIME STEP      L**3/T          PACKAGE NAME    
     ------------------                 ------------------------                     ----------------

           IN:                                      IN:
           ---                                      ---
              STO-SS =           0.0000                STO-SS =           0.0000     STORAGE                          
                 WEL =           0.0000                   WEL =           0.0000     WEL1                             
                 WEL =           0.1590                   WEL =       5.0000E-04     WEL2                             

            TOTAL IN =           0.1590              TOTAL IN =       5.0000E-04

          OUT:                                     OUT:
          ----                                     ----
              STO-SS =           0.0000                STO-SS =           0.0000     STORAGE                          
                 WEL =           0.1590                   WEL =       5.0000E-04     WEL1                             
                 WEL =           0.0000                   WEL =           0.0000     WEL2                             

           TOTAL OUT =           0.1590             TOTAL OUT =       5.0000E-04

            IN - OUT =       4.0000E-11              IN - OUT =      -1.0842E-19

 PERCENT DISCREPANCY =           0.00     PERCENT DISCREPANCY =          -0.00




         TIME SUMMARY AT END OF TIME STEP   59 IN STRESS PERIOD    2
                    SECONDS     MINUTES      HOURS       DAYS        YEARS
                    -----------------------------------------------------------
   TIME STEP LENGTH 1.72800E+05  2880.0      48.000      2.0000     5.47570E-03
 STRESS PERIOD TIME 1.01952E+07 1.69920E+05  2832.0      118.00     0.32307    
         TOTAL TIME 2.74752E+07 4.57920E+05  7632.0      318.00     0.87064    


end timestep


start timestep kper="2" kstp="60" mode="normal"

 UBDSV1 SAVING           STO-SS ON UNIT   1027 AT TIME STEP     60, STRESS PERIOD      2
 UBDSV1 SAVING     FLOW-JA-FACE ON UNIT   1027 AT TIME STEP     60, STRESS PERIOD      2

 WEL PACKAGE (WEL1) FLOW RATES   PERIOD      2   STEP       60
 -----------------------------------------------
   NUMBER   CELLID                    RATE      
 -----------------------------------------------
     1      (1,17,17)            -5.00000000E-05
     2      (1,33,17)            -5.00000000E-05
     3      (1,9,26)             -5.00000000E-05
     4      (1,17,35)            -5.00000000E-05
     5      (1,33,35)            -5.00000000E-05
     6      (1,26,26)            -5.00000000E-05
     7      (1,41,26)            -5.00000000E-05
     8      (1,4,39)             -5.00000000E-05
     9      (1,27,3)             -5.00000000E-05
     10     (1,46,46)            -5.00000000E-05
 -----------------------------------------------




 WEL PACKAGE (WEL2) FLOW RATES   PERIOD      2   STEP       60
 -----------------------------------------------
   NUMBER   CELLID                    RATE      
 -----------------------------------------------
     1      (1,17,26)             2.50000000E-04
     2      (1,33,26)             2.50000000E-04
 -----------------------------------------------




 HEAD WILL BE SAVED ON UNIT 1028 AT END OF TIME STEP   60, STRESS PERIOD    2


  VOLUME BUDGET FOR ENTIRE MODEL AT END OF TIME STEP   60, STRESS PERIOD   2
  ---------------------------------------------------------------------------------------------------

     CUMULATIVE VOLUME      L**3       RATES FOR THIS TIME STEP      L**3/T          PACKAGE NAME    
     ------------------                 ------------------------                     ----------------

           IN:                                      IN:
           ---                                      ---
              STO-SS =           0.0000                STO-SS =           0.0000     STORAGE                          
                 WEL =           0.0000                   WEL =           0.0000     WEL1                             
                 WEL =           0.1600                   WEL =       5.0000E-04     WEL2                             

            TOTAL IN =           0.1600              TOTAL IN =       5.0000E-04

          OUT:                                     OUT:
          ----                                     ----
              STO-SS =           0.0000                STO-SS =           0.0000     STORAGE                          
                 WEL =           0.1600                   WEL =       5.0000E-04     WEL1                             
                 WEL =           0.0000                   WEL =           0.0000     WEL2                             

           TOTAL OUT =           0.1600             TOTAL OUT =       5.0000E-04

            IN - OUT =       4.0000E-11              IN - OUT =      -1.0842E-19

 PERCENT DISCREPANCY =           0.00     PERCENT DISCREPANCY =          -0.00




         TIME SUMMARY AT END OF TIME STEP   60 IN STRESS PERIOD    2
                    SECONDS     MINUTES      HOURS       DAYS        YEARS
                    -----------------------------------------------------------
   TIME STEP LENGTH 1.72800E+05  2880.0      48.000      2.0000     5.47570E-03
 STRESS PERIOD TIME 1.03680E+07 1.72800E+05  2880.0      120.00     0.32854    
         TOTAL TIME 2.76480E+07 4.60800E+05  7680.0      320.00     0.87611    


end timestep


start timestep kper="2" kstp="61" mode="normal"

 UBDSV1 SAVING           STO-SS ON UNIT   1027 AT TIME STEP     61, STRESS PERIOD      2
 UBDSV1 SAVING     FLOW-JA-FACE ON UNIT   1027 AT TIME STEP     61, STRESS PERIOD      2

 WEL PACKAGE (WEL1) FLOW RATES   PERIOD      2   STEP       61
 -----------------------------------------------
   NUMBER   CELLID                    RATE      
 -----------------------------------------------
     1      (1,17,17)            -5.00000000E-05
     2      (1,33,17)            -5.00000000E-05
     3      (1,9,26)             -5.00000000E-05
     4      (1,17,35)            -5.00000000E-05
     5      (1,33,35)            -5.00000000E-05
     6      (1,26,26)            -5.00000000E-05
     7      (1,41,26)            -5.00000000E-05
     8      (1,4,39)             -5.00000000E-05
     9      (1,27,3)             -5.00000000E-05
     10     (1,46,46)            -5.00000000E-05
 -----------------------------------------------




 WEL PACKAGE (WEL2) FLOW RATES   PERIOD      2   STEP       61
 -----------------------------------------------
   NUMBER   CELLID                    RATE      
 -----------------------------------------------
     1      (1,17,26)             2.50000000E-04
     2      (1,33,26)             2.50000000E-04
 -----------------------------------------------




 HEAD WILL BE SAVED ON UNIT 1028 AT END OF TIME STEP   61, STRESS PERIOD    2


  VOLUME BUDGET FOR ENTIRE MODEL AT END OF TIME STEP   61, STRESS PERIOD   2
  ---------------------------------------------------------------------------------------------------

     CUMULATIVE VOLUME      L**3       RATES FOR THIS TIME STEP      L**3/T          PACKAGE NAME    
     ------------------                 ------------------------                     ----------------

           IN:                                      IN:
           ---                                      ---
              STO-SS =           0.0000                STO-SS =           0.0000     STORAGE                          
                 WEL =           0.0000                   WEL =           0.0000     WEL1                             
                 WEL =           0.1610                   WEL =       5.0000E-04     WEL2                             

            TOTAL IN =           0.1610              TOTAL IN =       5.0000E-04

          OUT:                                     OUT:
          ----                                     ----
              STO-SS =           0.0000                STO-SS =           0.0000     STORAGE                          
                 WEL =           0.1610                   WEL =       5.0000E-04     WEL1                             
                 WEL =           0.0000                   WEL =           0.0000     WEL2                             

           TOTAL OUT =           0.1610             TOTAL OUT =       5.0000E-04

            IN - OUT =       4.0000E-11              IN - OUT =      -1.0842E-19

 PERCENT DISCREPANCY =           0.00     PERCENT DISCREPANCY =          -0.00




         TIME SUMMARY AT END OF TIME STEP   61 IN STRESS PERIOD    2
                    SECONDS     MINUTES      HOURS       DAYS        YEARS
                    -----------------------------------------------------------
   TIME STEP LENGTH 1.72800E+05  2880.0      48.000      2.0000     5.47570E-03
 STRESS PERIOD TIME 1.05408E+07 1.75680E+05  2928.0      122.00     0.33402    
         TOTAL TIME 2.78208E+07 4.63680E+05  7728.0      322.00     0.88159    


end timestep


start timestep kper="2" kstp="62" mode="normal"

 UBDSV1 SAVING           STO-SS ON UNIT   1027 AT TIME STEP     62, STRESS PERIOD      2
 UBDSV1 SAVING     FLOW-JA-FACE ON UNIT   1027 AT TIME STEP     62, STRESS PERIOD      2

 WEL PACKAGE (WEL1) FLOW RATES   PERIOD      2   STEP       62
 -----------------------------------------------
   NUMBER   CELLID                    RATE      
 -----------------------------------------------
     1      (1,17,17)            -5.00000000E-05
     2      (1,33,17)            -5.00000000E-05
     3      (1,9,26)             -5.00000000E-05
     4      (1,17,35)            -5.00000000E-05
     5      (1,33,35)            -5.00000000E-05
     6      (1,26,26)            -5.00000000E-05
     7      (1,41,26)            -5.00000000E-05
     8      (1,4,39)             -5.00000000E-05
     9      (1,27,3)             -5.00000000E-05
     10     (1,46,46)            -5.00000000E-05
 -----------------------------------------------




 WEL PACKAGE (WEL2) FLOW RATES   PERIOD      2   STEP       62
 -----------------------------------------------
   NUMBER   CELLID                    RATE      
 -----------------------------------------------
     1      (1,17,26)             2.50000000E-04
     2      (1,33,26)             2.50000000E-04
 -----------------------------------------------




 HEAD WILL BE SAVED ON UNIT 1028 AT END OF TIME STEP   62, STRESS PERIOD    2


  VOLUME BUDGET FOR ENTIRE MODEL AT END OF TIME STEP   62, STRESS PERIOD   2
  ---------------------------------------------------------------------------------------------------

     CUMULATIVE VOLUME      L**3       RATES FOR THIS TIME STEP      L**3/T          PACKAGE NAME    
     ------------------                 ------------------------                     ----------------

           IN:                                      IN:
           ---                                      ---
              STO-SS =           0.0000                STO-SS =           0.0000     STORAGE                          
                 WEL =           0.0000                   WEL =           0.0000     WEL1                             
                 WEL =           0.1620                   WEL =       5.0000E-04     WEL2                             

            TOTAL IN =           0.1620              TOTAL IN =       5.0000E-04

          OUT:                                     OUT:
          ----                                     ----
              STO-SS =           0.0000                STO-SS =           0.0000     STORAGE                          
                 WEL =           0.1620                   WEL =       5.0000E-04     WEL1                             
                 WEL =           0.0000                   WEL =           0.0000     WEL2                             

           TOTAL OUT =           0.1620             TOTAL OUT =       5.0000E-04

            IN - OUT =       4.0000E-11              IN - OUT =      -1.0842E-19

 PERCENT DISCREPANCY =           0.00     PERCENT DISCREPANCY =          -0.00




         TIME SUMMARY AT END OF TIME STEP   62 IN STRESS PERIOD    2
                    SECONDS     MINUTES      HOURS       DAYS        YEARS
                    -----------------------------------------------------------
   TIME STEP LENGTH 1.72800E+05  2880.0      48.000      2.0000     5.47570E-03
 STRESS PERIOD TIME 1.07136E+07 1.78560E+05  2976.0      124.00     0.33949    
         TOTAL TIME 2.79936E+07 4.66560E+05  7776.0      324.00     0.88706    


end timestep


start timestep kper="2" kstp="63" mode="normal"

 UBDSV1 SAVING           STO-SS ON UNIT   1027 AT TIME STEP     63, STRESS PERIOD      2
 UBDSV1 SAVING     FLOW-JA-FACE ON UNIT   1027 AT TIME STEP     63, STRESS PERIOD      2

 WEL PACKAGE (WEL1) FLOW RATES   PERIOD      2   STEP       63
 -----------------------------------------------
   NUMBER   CELLID                    RATE      
 -----------------------------------------------
     1      (1,17,17)            -5.00000000E-05
     2      (1,33,17)            -5.00000000E-05
     3      (1,9,26)             -5.00000000E-05
     4      (1,17,35)            -5.00000000E-05
     5      (1,33,35)            -5.00000000E-05
     6      (1,26,26)            -5.00000000E-05
     7      (1,41,26)            -5.00000000E-05
     8      (1,4,39)             -5.00000000E-05
     9      (1,27,3)             -5.00000000E-05
     10     (1,46,46)            -5.00000000E-05
 -----------------------------------------------




 WEL PACKAGE (WEL2) FLOW RATES   PERIOD      2   STEP       63
 -----------------------------------------------
   NUMBER   CELLID                    RATE      
 -----------------------------------------------
     1      (1,17,26)             2.50000000E-04
     2      (1,33,26)             2.50000000E-04
 -----------------------------------------------




 HEAD WILL BE SAVED ON UNIT 1028 AT END OF TIME STEP   63, STRESS PERIOD    2


  VOLUME BUDGET FOR ENTIRE MODEL AT END OF TIME STEP   63, STRESS PERIOD   2
  ---------------------------------------------------------------------------------------------------

     CUMULATIVE VOLUME      L**3       RATES FOR THIS TIME STEP      L**3/T          PACKAGE NAME    
     ------------------                 ------------------------                     ----------------

           IN:                                      IN:
           ---                                      ---
              STO-SS =           0.0000                STO-SS =           0.0000     STORAGE                          
                 WEL =           0.0000                   WEL =           0.0000     WEL1                             
                 WEL =           0.1630                   WEL =       5.0000E-04     WEL2                             

            TOTAL IN =           0.1630              TOTAL IN =       5.0000E-04

          OUT:                                     OUT:
          ----                                     ----
              STO-SS =           0.0000                STO-SS =           0.0000     STORAGE                          
                 WEL =           0.1630                   WEL =       5.0000E-04     WEL1                             
                 WEL =           0.0000                   WEL =           0.0000     WEL2                             

           TOTAL OUT =           0.1630             TOTAL OUT =       5.0000E-04

            IN - OUT =       4.0000E-11              IN - OUT =      -1.0842E-19

 PERCENT DISCREPANCY =           0.00     PERCENT DISCREPANCY =          -0.00




         TIME SUMMARY AT END OF TIME STEP   63 IN STRESS PERIOD    2
                    SECONDS     MINUTES      HOURS       DAYS        YEARS
                    -----------------------------------------------------------
   TIME STEP LENGTH 1.72800E+05  2880.0      48.000      2.0000     5.47570E-03
 STRESS PERIOD TIME 1.08864E+07 1.81440E+05  3024.0      126.00     0.34497    
         TOTAL TIME 2.81664E+07 4.69440E+05  7824.0      326.00     0.89254    


end timestep


start timestep kper="2" kstp="64" mode="normal"

 UBDSV1 SAVING           STO-SS ON UNIT   1027 AT TIME STEP     64, STRESS PERIOD      2
 UBDSV1 SAVING     FLOW-JA-FACE ON UNIT   1027 AT TIME STEP     64, STRESS PERIOD      2

 WEL PACKAGE (WEL1) FLOW RATES   PERIOD      2   STEP       64
 -----------------------------------------------
   NUMBER   CELLID                    RATE      
 -----------------------------------------------
     1      (1,17,17)            -5.00000000E-05
     2      (1,33,17)            -5.00000000E-05
     3      (1,9,26)             -5.00000000E-05
     4      (1,17,35)            -5.00000000E-05
     5      (1,33,35)            -5.00000000E-05
     6      (1,26,26)            -5.00000000E-05
     7      (1,41,26)            -5.00000000E-05
     8      (1,4,39)             -5.00000000E-05
     9      (1,27,3)             -5.00000000E-05
     10     (1,46,46)            -5.00000000E-05
 -----------------------------------------------




 WEL PACKAGE (WEL2) FLOW RATES   PERIOD      2   STEP       64
 -----------------------------------------------
   NUMBER   CELLID                    RATE      
 -----------------------------------------------
     1      (1,17,26)             2.50000000E-04
     2      (1,33,26)             2.50000000E-04
 -----------------------------------------------




 HEAD WILL BE SAVED ON UNIT 1028 AT END OF TIME STEP   64, STRESS PERIOD    2


  VOLUME BUDGET FOR ENTIRE MODEL AT END OF TIME STEP   64, STRESS PERIOD   2
  ---------------------------------------------------------------------------------------------------

     CUMULATIVE VOLUME      L**3       RATES FOR THIS TIME STEP      L**3/T          PACKAGE NAME    
     ------------------                 ------------------------                     ----------------

           IN:                                      IN:
           ---                                      ---
              STO-SS =           0.0000                STO-SS =           0.0000     STORAGE                          
                 WEL =           0.0000                   WEL =           0.0000     WEL1                             
                 WEL =           0.1640                   WEL =       5.0000E-04     WEL2                             

            TOTAL IN =           0.1640              TOTAL IN =       5.0000E-04

          OUT:                                     OUT:
          ----                                     ----
              STO-SS =           0.0000                STO-SS =           0.0000     STORAGE                          
                 WEL =           0.1640                   WEL =       5.0000E-04     WEL1                             
                 WEL =           0.0000                   WEL =           0.0000     WEL2                             

           TOTAL OUT =           0.1640             TOTAL OUT =       5.0000E-04

            IN - OUT =       4.0000E-11              IN - OUT =      -1.0842E-19

 PERCENT DISCREPANCY =           0.00     PERCENT DISCREPANCY =          -0.00




         TIME SUMMARY AT END OF TIME STEP   64 IN STRESS PERIOD    2
                    SECONDS     MINUTES      HOURS       DAYS        YEARS
                    -----------------------------------------------------------
   TIME STEP LENGTH 1.72800E+05  2880.0      48.000      2.0000     5.47570E-03
 STRESS PERIOD TIME 1.10592E+07 1.84320E+05  3072.0      128.00     0.35044    
         TOTAL TIME 2.83392E+07 4.72320E+05  7872.0      328.00     0.89802    


end timestep


start timestep kper="2" kstp="65" mode="normal"

 UBDSV1 SAVING           STO-SS ON UNIT   1027 AT TIME STEP     65, STRESS PERIOD      2
 UBDSV1 SAVING     FLOW-JA-FACE ON UNIT   1027 AT TIME STEP     65, STRESS PERIOD      2

 WEL PACKAGE (WEL1) FLOW RATES   PERIOD      2   STEP       65
 -----------------------------------------------
   NUMBER   CELLID                    RATE      
 -----------------------------------------------
     1      (1,17,17)            -5.00000000E-05
     2      (1,33,17)            -5.00000000E-05
     3      (1,9,26)             -5.00000000E-05
     4      (1,17,35)            -5.00000000E-05
     5      (1,33,35)            -5.00000000E-05
     6      (1,26,26)            -5.00000000E-05
     7      (1,41,26)            -5.00000000E-05
     8      (1,4,39)             -5.00000000E-05
     9      (1,27,3)             -5.00000000E-05
     10     (1,46,46)            -5.00000000E-05
 -----------------------------------------------




 WEL PACKAGE (WEL2) FLOW RATES   PERIOD      2   STEP       65
 -----------------------------------------------
   NUMBER   CELLID                    RATE      
 -----------------------------------------------
     1      (1,17,26)             2.50000000E-04
     2      (1,33,26)             2.50000000E-04
 -----------------------------------------------




 HEAD WILL BE SAVED ON UNIT 1028 AT END OF TIME STEP   65, STRESS PERIOD    2


  VOLUME BUDGET FOR ENTIRE MODEL AT END OF TIME STEP   65, STRESS PERIOD   2
  ---------------------------------------------------------------------------------------------------

     CUMULATIVE VOLUME      L**3       RATES FOR THIS TIME STEP      L**3/T          PACKAGE NAME    
     ------------------                 ------------------------                     ----------------

           IN:                                      IN:
           ---                                      ---
              STO-SS =           0.0000                STO-SS =           0.0000     STORAGE                          
                 WEL =           0.0000                   WEL =           0.0000     WEL1                             
                 WEL =           0.1650                   WEL =       5.0000E-04     WEL2                             

            TOTAL IN =           0.1650              TOTAL IN =       5.0000E-04

          OUT:                                     OUT:
          ----                                     ----
              STO-SS =           0.0000                STO-SS =           0.0000     STORAGE                          
                 WEL =           0.1650                   WEL =       5.0000E-04     WEL1                             
                 WEL =           0.0000                   WEL =           0.0000     WEL2                             

           TOTAL OUT =           0.1650             TOTAL OUT =       5.0000E-04

            IN - OUT =       4.0000E-11              IN - OUT =      -1.0842E-19

 PERCENT DISCREPANCY =           0.00     PERCENT DISCREPANCY =          -0.00




         TIME SUMMARY AT END OF TIME STEP   65 IN STRESS PERIOD    2
                    SECONDS     MINUTES      HOURS       DAYS        YEARS
                    -----------------------------------------------------------
   TIME STEP LENGTH 1.72800E+05  2880.0      48.000      2.0000     5.47570E-03
 STRESS PERIOD TIME 1.12320E+07 1.87200E+05  3120.0      130.00     0.35592    
         TOTAL TIME 2.85120E+07 4.75200E+05  7920.0      330.00     0.90349    


end timestep


start timestep kper="2" kstp="66" mode="normal"

 UBDSV1 SAVING           STO-SS ON UNIT   1027 AT TIME STEP     66, STRESS PERIOD      2
 UBDSV1 SAVING     FLOW-JA-FACE ON UNIT   1027 AT TIME STEP     66, STRESS PERIOD      2

 WEL PACKAGE (WEL1) FLOW RATES   PERIOD      2   STEP       66
 -----------------------------------------------
   NUMBER   CELLID                    RATE      
 -----------------------------------------------
     1      (1,17,17)            -5.00000000E-05
     2      (1,33,17)            -5.00000000E-05
     3      (1,9,26)             -5.00000000E-05
     4      (1,17,35)            -5.00000000E-05
     5      (1,33,35)            -5.00000000E-05
     6      (1,26,26)            -5.00000000E-05
     7      (1,41,26)            -5.00000000E-05
     8      (1,4,39)             -5.00000000E-05
     9      (1,27,3)             -5.00000000E-05
     10     (1,46,46)            -5.00000000E-05
 -----------------------------------------------




 WEL PACKAGE (WEL2) FLOW RATES   PERIOD      2   STEP       66
 -----------------------------------------------
   NUMBER   CELLID                    RATE      
 -----------------------------------------------
     1      (1,17,26)             2.50000000E-04
     2      (1,33,26)             2.50000000E-04
 -----------------------------------------------




 HEAD WILL BE SAVED ON UNIT 1028 AT END OF TIME STEP   66, STRESS PERIOD    2


  VOLUME BUDGET FOR ENTIRE MODEL AT END OF TIME STEP   66, STRESS PERIOD   2
  ---------------------------------------------------------------------------------------------------

     CUMULATIVE VOLUME      L**3       RATES FOR THIS TIME STEP      L**3/T          PACKAGE NAME    
     ------------------                 ------------------------                     ----------------

           IN:                                      IN:
           ---                                      ---
              STO-SS =           0.0000                STO-SS =           0.0000     STORAGE                          
                 WEL =           0.0000                   WEL =           0.0000     WEL1                             
                 WEL =           0.1660                   WEL =       5.0000E-04     WEL2                             

            TOTAL IN =           0.1660              TOTAL IN =       5.0000E-04

          OUT:                                     OUT:
          ----                                     ----
              STO-SS =           0.0000                STO-SS =           0.0000     STORAGE                          
                 WEL =           0.1660                   WEL =       5.0000E-04     WEL1                             
                 WEL =           0.0000                   WEL =           0.0000     WEL2                             

           TOTAL OUT =           0.1660             TOTAL OUT =       5.0000E-04

            IN - OUT =       4.0000E-11              IN - OUT =      -1.0842E-19

 PERCENT DISCREPANCY =           0.00     PERCENT DISCREPANCY =          -0.00




         TIME SUMMARY AT END OF TIME STEP   66 IN STRESS PERIOD    2
                    SECONDS     MINUTES      HOURS       DAYS        YEARS
                    -----------------------------------------------------------
   TIME STEP LENGTH 1.72800E+05  2880.0      48.000      2.0000     5.47570E-03
 STRESS PERIOD TIME 1.14048E+07 1.90080E+05  3168.0      132.00     0.36140    
         TOTAL TIME 2.86848E+07 4.78080E+05  7968.0      332.00     0.90897    


end timestep


start timestep kper="2" kstp="67" mode="normal"

 UBDSV1 SAVING           STO-SS ON UNIT   1027 AT TIME STEP     67, STRESS PERIOD      2
 UBDSV1 SAVING     FLOW-JA-FACE ON UNIT   1027 AT TIME STEP     67, STRESS PERIOD      2

 WEL PACKAGE (WEL1) FLOW RATES   PERIOD      2   STEP       67
 -----------------------------------------------
   NUMBER   CELLID                    RATE      
 -----------------------------------------------
     1      (1,17,17)            -5.00000000E-05
     2      (1,33,17)            -5.00000000E-05
     3      (1,9,26)             -5.00000000E-05
     4      (1,17,35)            -5.00000000E-05
     5      (1,33,35)            -5.00000000E-05
     6      (1,26,26)            -5.00000000E-05
     7      (1,41,26)            -5.00000000E-05
     8      (1,4,39)             -5.00000000E-05
     9      (1,27,3)             -5.00000000E-05
     10     (1,46,46)            -5.00000000E-05
 -----------------------------------------------




 WEL PACKAGE (WEL2) FLOW RATES   PERIOD      2   STEP       67
 -----------------------------------------------
   NUMBER   CELLID                    RATE      
 -----------------------------------------------
     1      (1,17,26)             2.50000000E-04
     2      (1,33,26)             2.50000000E-04
 -----------------------------------------------




 HEAD WILL BE SAVED ON UNIT 1028 AT END OF TIME STEP   67, STRESS PERIOD    2


  VOLUME BUDGET FOR ENTIRE MODEL AT END OF TIME STEP   67, STRESS PERIOD   2
  ---------------------------------------------------------------------------------------------------

     CUMULATIVE VOLUME      L**3       RATES FOR THIS TIME STEP      L**3/T          PACKAGE NAME    
     ------------------                 ------------------------                     ----------------

           IN:                                      IN:
           ---                                      ---
              STO-SS =           0.0000                STO-SS =           0.0000     STORAGE                          
                 WEL =           0.0000                   WEL =           0.0000     WEL1                             
                 WEL =           0.1670                   WEL =       5.0000E-04     WEL2                             

            TOTAL IN =           0.1670              TOTAL IN =       5.0000E-04

          OUT:                                     OUT:
          ----                                     ----
              STO-SS =           0.0000                STO-SS =           0.0000     STORAGE                          
                 WEL =           0.1670                   WEL =       5.0000E-04     WEL1                             
                 WEL =           0.0000                   WEL =           0.0000     WEL2                             

           TOTAL OUT =           0.1670             TOTAL OUT =       5.0000E-04

            IN - OUT =       4.0000E-11              IN - OUT =      -1.0842E-19

 PERCENT DISCREPANCY =           0.00     PERCENT DISCREPANCY =          -0.00




         TIME SUMMARY AT END OF TIME STEP   67 IN STRESS PERIOD    2
                    SECONDS     MINUTES      HOURS       DAYS        YEARS
                    -----------------------------------------------------------
   TIME STEP LENGTH 1.72800E+05  2880.0      48.000      2.0000     5.47570E-03
 STRESS PERIOD TIME 1.15776E+07 1.92960E+05  3216.0      134.00     0.36687    
         TOTAL TIME 2.88576E+07 4.80960E+05  8016.0      334.00     0.91444    


end timestep


start timestep kper="2" kstp="68" mode="normal"

 UBDSV1 SAVING           STO-SS ON UNIT   1027 AT TIME STEP     68, STRESS PERIOD      2
 UBDSV1 SAVING     FLOW-JA-FACE ON UNIT   1027 AT TIME STEP     68, STRESS PERIOD      2

 WEL PACKAGE (WEL1) FLOW RATES   PERIOD      2   STEP       68
 -----------------------------------------------
   NUMBER   CELLID                    RATE      
 -----------------------------------------------
     1      (1,17,17)            -5.00000000E-05
     2      (1,33,17)            -5.00000000E-05
     3      (1,9,26)             -5.00000000E-05
     4      (1,17,35)            -5.00000000E-05
     5      (1,33,35)            -5.00000000E-05
     6      (1,26,26)            -5.00000000E-05
     7      (1,41,26)            -5.00000000E-05
     8      (1,4,39)             -5.00000000E-05
     9      (1,27,3)             -5.00000000E-05
     10     (1,46,46)            -5.00000000E-05
 -----------------------------------------------




 WEL PACKAGE (WEL2) FLOW RATES   PERIOD      2   STEP       68
 -----------------------------------------------
   NUMBER   CELLID                    RATE      
 -----------------------------------------------
     1      (1,17,26)             2.50000000E-04
     2      (1,33,26)             2.50000000E-04
 -----------------------------------------------




 HEAD WILL BE SAVED ON UNIT 1028 AT END OF TIME STEP   68, STRESS PERIOD    2


  VOLUME BUDGET FOR ENTIRE MODEL AT END OF TIME STEP   68, STRESS PERIOD   2
  ---------------------------------------------------------------------------------------------------

     CUMULATIVE VOLUME      L**3       RATES FOR THIS TIME STEP      L**3/T          PACKAGE NAME    
     ------------------                 ------------------------                     ----------------

           IN:                                      IN:
           ---                                      ---
              STO-SS =           0.0000                STO-SS =           0.0000     STORAGE                          
                 WEL =           0.0000                   WEL =           0.0000     WEL1                             
                 WEL =           0.1680                   WEL =       5.0000E-04     WEL2                             

            TOTAL IN =           0.1680              TOTAL IN =       5.0000E-04

          OUT:                                     OUT:
          ----                                     ----
              STO-SS =           0.0000                STO-SS =           0.0000     STORAGE                          
                 WEL =           0.1680                   WEL =       5.0000E-04     WEL1                             
                 WEL =           0.0000                   WEL =           0.0000     WEL2                             

           TOTAL OUT =           0.1680             TOTAL OUT =       5.0000E-04

            IN - OUT =       4.0000E-11              IN - OUT =      -1.0842E-19

 PERCENT DISCREPANCY =           0.00     PERCENT DISCREPANCY =          -0.00




         TIME SUMMARY AT END OF TIME STEP   68 IN STRESS PERIOD    2
                    SECONDS     MINUTES      HOURS       DAYS        YEARS
                    -----------------------------------------------------------
   TIME STEP LENGTH 1.72800E+05  2880.0      48.000      2.0000     5.47570E-03
 STRESS PERIOD TIME 1.17504E+07 1.95840E+05  3264.0      136.00     0.37235    
         TOTAL TIME 2.90304E+07 4.83840E+05  8064.0      336.00     0.91992    


end timestep


start timestep kper="2" kstp="69" mode="normal"

 UBDSV1 SAVING           STO-SS ON UNIT   1027 AT TIME STEP     69, STRESS PERIOD      2
 UBDSV1 SAVING     FLOW-JA-FACE ON UNIT   1027 AT TIME STEP     69, STRESS PERIOD      2

 WEL PACKAGE (WEL1) FLOW RATES   PERIOD      2   STEP       69
 -----------------------------------------------
   NUMBER   CELLID                    RATE      
 -----------------------------------------------
     1      (1,17,17)            -5.00000000E-05
     2      (1,33,17)            -5.00000000E-05
     3      (1,9,26)             -5.00000000E-05
     4      (1,17,35)            -5.00000000E-05
     5      (1,33,35)            -5.00000000E-05
     6      (1,26,26)            -5.00000000E-05
     7      (1,41,26)            -5.00000000E-05
     8      (1,4,39)             -5.00000000E-05
     9      (1,27,3)             -5.00000000E-05
     10     (1,46,46)            -5.00000000E-05
 -----------------------------------------------




 WEL PACKAGE (WEL2) FLOW RATES   PERIOD      2   STEP       69
 -----------------------------------------------
   NUMBER   CELLID                    RATE      
 -----------------------------------------------
     1      (1,17,26)             2.50000000E-04
     2      (1,33,26)             2.50000000E-04
 -----------------------------------------------




 HEAD WILL BE SAVED ON UNIT 1028 AT END OF TIME STEP   69, STRESS PERIOD    2


  VOLUME BUDGET FOR ENTIRE MODEL AT END OF TIME STEP   69, STRESS PERIOD   2
  ---------------------------------------------------------------------------------------------------

     CUMULATIVE VOLUME      L**3       RATES FOR THIS TIME STEP      L**3/T          PACKAGE NAME    
     ------------------                 ------------------------                     ----------------

           IN:                                      IN:
           ---                                      ---
              STO-SS =           0.0000                STO-SS =           0.0000     STORAGE                          
                 WEL =           0.0000                   WEL =           0.0000     WEL1                             
                 WEL =           0.1690                   WEL =       5.0000E-04     WEL2                             

            TOTAL IN =           0.1690              TOTAL IN =       5.0000E-04

          OUT:                                     OUT:
          ----                                     ----
              STO-SS =           0.0000                STO-SS =           0.0000     STORAGE                          
                 WEL =           0.1690                   WEL =       5.0000E-04     WEL1                             
                 WEL =           0.0000                   WEL =           0.0000     WEL2                             

           TOTAL OUT =           0.1690             TOTAL OUT =       5.0000E-04

            IN - OUT =       4.0000E-11              IN - OUT =      -1.0842E-19

 PERCENT DISCREPANCY =           0.00     PERCENT DISCREPANCY =          -0.00




         TIME SUMMARY AT END OF TIME STEP   69 IN STRESS PERIOD    2
                    SECONDS     MINUTES      HOURS       DAYS        YEARS
                    -----------------------------------------------------------
   TIME STEP LENGTH 1.72800E+05  2880.0      48.000      2.0000     5.47570E-03
 STRESS PERIOD TIME 1.19232E+07 1.98720E+05  3312.0      138.00     0.37782    
         TOTAL TIME 2.92032E+07 4.86720E+05  8112.0      338.00     0.92539    


end timestep


start timestep kper="2" kstp="70" mode="normal"

 UBDSV1 SAVING           STO-SS ON UNIT   1027 AT TIME STEP     70, STRESS PERIOD      2
 UBDSV1 SAVING     FLOW-JA-FACE ON UNIT   1027 AT TIME STEP     70, STRESS PERIOD      2

 WEL PACKAGE (WEL1) FLOW RATES   PERIOD      2   STEP       70
 -----------------------------------------------
   NUMBER   CELLID                    RATE      
 -----------------------------------------------
     1      (1,17,17)            -5.00000000E-05
     2      (1,33,17)            -5.00000000E-05
     3      (1,9,26)             -5.00000000E-05
     4      (1,17,35)            -5.00000000E-05
     5      (1,33,35)            -5.00000000E-05
     6      (1,26,26)            -5.00000000E-05
     7      (1,41,26)            -5.00000000E-05
     8      (1,4,39)             -5.00000000E-05
     9      (1,27,3)             -5.00000000E-05
     10     (1,46,46)            -5.00000000E-05
 -----------------------------------------------




 WEL PACKAGE (WEL2) FLOW RATES   PERIOD      2   STEP       70
 -----------------------------------------------
   NUMBER   CELLID                    RATE      
 -----------------------------------------------
     1      (1,17,26)             2.50000000E-04
     2      (1,33,26)             2.50000000E-04
 -----------------------------------------------




 HEAD WILL BE SAVED ON UNIT 1028 AT END OF TIME STEP   70, STRESS PERIOD    2


  VOLUME BUDGET FOR ENTIRE MODEL AT END OF TIME STEP   70, STRESS PERIOD   2
  ---------------------------------------------------------------------------------------------------

     CUMULATIVE VOLUME      L**3       RATES FOR THIS TIME STEP      L**3/T          PACKAGE NAME    
     ------------------                 ------------------------                     ----------------

           IN:                                      IN:
           ---                                      ---
              STO-SS =           0.0000                STO-SS =           0.0000     STORAGE                          
                 WEL =           0.0000                   WEL =           0.0000     WEL1                             
                 WEL =           0.1700                   WEL =       5.0000E-04     WEL2                             

            TOTAL IN =           0.1700              TOTAL IN =       5.0000E-04

          OUT:                                     OUT:
          ----                                     ----
              STO-SS =           0.0000                STO-SS =           0.0000     STORAGE                          
                 WEL =           0.1700                   WEL =       5.0000E-04     WEL1                             
                 WEL =           0.0000                   WEL =           0.0000     WEL2                             

           TOTAL OUT =           0.1700             TOTAL OUT =       5.0000E-04

            IN - OUT =       4.0000E-11              IN - OUT =      -1.0842E-19

 PERCENT DISCREPANCY =           0.00     PERCENT DISCREPANCY =          -0.00




         TIME SUMMARY AT END OF TIME STEP   70 IN STRESS PERIOD    2
                    SECONDS     MINUTES      HOURS       DAYS        YEARS
                    -----------------------------------------------------------
   TIME STEP LENGTH 1.72800E+05  2880.0      48.000      2.0000     5.47570E-03
 STRESS PERIOD TIME 1.20960E+07 2.01600E+05  3360.0      140.00     0.38330    
         TOTAL TIME 2.93760E+07 4.89600E+05  8160.0      340.00     0.93087    


end timestep


start timestep kper="2" kstp="71" mode="normal"

 UBDSV1 SAVING           STO-SS ON UNIT   1027 AT TIME STEP     71, STRESS PERIOD      2
 UBDSV1 SAVING     FLOW-JA-FACE ON UNIT   1027 AT TIME STEP     71, STRESS PERIOD      2

 WEL PACKAGE (WEL1) FLOW RATES   PERIOD      2   STEP       71
 -----------------------------------------------
   NUMBER   CELLID                    RATE      
 -----------------------------------------------
     1      (1,17,17)            -5.00000000E-05
     2      (1,33,17)            -5.00000000E-05
     3      (1,9,26)             -5.00000000E-05
     4      (1,17,35)            -5.00000000E-05
     5      (1,33,35)            -5.00000000E-05
     6      (1,26,26)            -5.00000000E-05
     7      (1,41,26)            -5.00000000E-05
     8      (1,4,39)             -5.00000000E-05
     9      (1,27,3)             -5.00000000E-05
     10     (1,46,46)            -5.00000000E-05
 -----------------------------------------------




 WEL PACKAGE (WEL2) FLOW RATES   PERIOD      2   STEP       71
 -----------------------------------------------
   NUMBER   CELLID                    RATE      
 -----------------------------------------------
     1      (1,17,26)             2.50000000E-04
     2      (1,33,26)             2.50000000E-04
 -----------------------------------------------




 HEAD WILL BE SAVED ON UNIT 1028 AT END OF TIME STEP   71, STRESS PERIOD    2


  VOLUME BUDGET FOR ENTIRE MODEL AT END OF TIME STEP   71, STRESS PERIOD   2
  ---------------------------------------------------------------------------------------------------

     CUMULATIVE VOLUME      L**3       RATES FOR THIS TIME STEP      L**3/T          PACKAGE NAME    
     ------------------                 ------------------------                     ----------------

           IN:                                      IN:
           ---                                      ---
              STO-SS =           0.0000                STO-SS =           0.0000     STORAGE                          
                 WEL =           0.0000                   WEL =           0.0000     WEL1                             
                 WEL =           0.1710                   WEL =       5.0000E-04     WEL2                             

            TOTAL IN =           0.1710              TOTAL IN =       5.0000E-04

          OUT:                                     OUT:
          ----                                     ----
              STO-SS =           0.0000                STO-SS =           0.0000     STORAGE                          
                 WEL =           0.1710                   WEL =       5.0000E-04     WEL1                             
                 WEL =           0.0000                   WEL =           0.0000     WEL2                             

           TOTAL OUT =           0.1710             TOTAL OUT =       5.0000E-04

            IN - OUT =       4.0000E-11              IN - OUT =      -1.0842E-19

 PERCENT DISCREPANCY =           0.00     PERCENT DISCREPANCY =          -0.00




         TIME SUMMARY AT END OF TIME STEP   71 IN STRESS PERIOD    2
                    SECONDS     MINUTES      HOURS       DAYS        YEARS
                    -----------------------------------------------------------
   TIME STEP LENGTH 1.72800E+05  2880.0      48.000      2.0000     5.47570E-03
 STRESS PERIOD TIME 1.22688E+07 2.04480E+05  3408.0      142.00     0.38877    
         TOTAL TIME 2.95488E+07 4.92480E+05  8208.0      342.00     0.93634    


end timestep


start timestep kper="2" kstp="72" mode="normal"

 UBDSV1 SAVING           STO-SS ON UNIT   1027 AT TIME STEP     72, STRESS PERIOD      2
 UBDSV1 SAVING     FLOW-JA-FACE ON UNIT   1027 AT TIME STEP     72, STRESS PERIOD      2

 WEL PACKAGE (WEL1) FLOW RATES   PERIOD      2   STEP       72
 -----------------------------------------------
   NUMBER   CELLID                    RATE      
 -----------------------------------------------
     1      (1,17,17)            -5.00000000E-05
     2      (1,33,17)            -5.00000000E-05
     3      (1,9,26)             -5.00000000E-05
     4      (1,17,35)            -5.00000000E-05
     5      (1,33,35)            -5.00000000E-05
     6      (1,26,26)            -5.00000000E-05
     7      (1,41,26)            -5.00000000E-05
     8      (1,4,39)             -5.00000000E-05
     9      (1,27,3)             -5.00000000E-05
     10     (1,46,46)            -5.00000000E-05
 -----------------------------------------------




 WEL PACKAGE (WEL2) FLOW RATES   PERIOD      2   STEP       72
 -----------------------------------------------
   NUMBER   CELLID                    RATE      
 -----------------------------------------------
     1      (1,17,26)             2.50000000E-04
     2      (1,33,26)             2.50000000E-04
 -----------------------------------------------




 HEAD WILL BE SAVED ON UNIT 1028 AT END OF TIME STEP   72, STRESS PERIOD    2


  VOLUME BUDGET FOR ENTIRE MODEL AT END OF TIME STEP   72, STRESS PERIOD   2
  ---------------------------------------------------------------------------------------------------

     CUMULATIVE VOLUME      L**3       RATES FOR THIS TIME STEP      L**3/T          PACKAGE NAME    
     ------------------                 ------------------------                     ----------------

           IN:                                      IN:
           ---                                      ---
              STO-SS =           0.0000                STO-SS =           0.0000     STORAGE                          
                 WEL =           0.0000                   WEL =           0.0000     WEL1                             
                 WEL =           0.1720                   WEL =       5.0000E-04     WEL2                             

            TOTAL IN =           0.1720              TOTAL IN =       5.0000E-04

          OUT:                                     OUT:
          ----                                     ----
              STO-SS =           0.0000                STO-SS =           0.0000     STORAGE                          
                 WEL =           0.1720                   WEL =       5.0000E-04     WEL1                             
                 WEL =           0.0000                   WEL =           0.0000     WEL2                             

           TOTAL OUT =           0.1720             TOTAL OUT =       5.0000E-04

            IN - OUT =       4.0000E-11              IN - OUT =      -1.0842E-19

 PERCENT DISCREPANCY =           0.00     PERCENT DISCREPANCY =          -0.00




         TIME SUMMARY AT END OF TIME STEP   72 IN STRESS PERIOD    2
                    SECONDS     MINUTES      HOURS       DAYS        YEARS
                    -----------------------------------------------------------
   TIME STEP LENGTH 1.72800E+05  2880.0      48.000      2.0000     5.47570E-03
 STRESS PERIOD TIME 1.24416E+07 2.07360E+05  3456.0      144.00     0.39425    
         TOTAL TIME 2.97216E+07 4.95360E+05  8256.0      344.00     0.94182    


end timestep


start timestep kper="2" kstp="73" mode="normal"

 UBDSV1 SAVING           STO-SS ON UNIT   1027 AT TIME STEP     73, STRESS PERIOD      2
 UBDSV1 SAVING     FLOW-JA-FACE ON UNIT   1027 AT TIME STEP     73, STRESS PERIOD      2

 WEL PACKAGE (WEL1) FLOW RATES   PERIOD      2   STEP       73
 -----------------------------------------------
   NUMBER   CELLID                    RATE      
 -----------------------------------------------
     1      (1,17,17)            -5.00000000E-05
     2      (1,33,17)            -5.00000000E-05
     3      (1,9,26)             -5.00000000E-05
     4      (1,17,35)            -5.00000000E-05
     5      (1,33,35)            -5.00000000E-05
     6      (1,26,26)            -5.00000000E-05
     7      (1,41,26)            -5.00000000E-05
     8      (1,4,39)             -5.00000000E-05
     9      (1,27,3)             -5.00000000E-05
     10     (1,46,46)            -5.00000000E-05
 -----------------------------------------------




 WEL PACKAGE (WEL2) FLOW RATES   PERIOD      2   STEP       73
 -----------------------------------------------
   NUMBER   CELLID                    RATE      
 -----------------------------------------------
     1      (1,17,26)             2.50000000E-04
     2      (1,33,26)             2.50000000E-04
 -----------------------------------------------




 HEAD WILL BE SAVED ON UNIT 1028 AT END OF TIME STEP   73, STRESS PERIOD    2


  VOLUME BUDGET FOR ENTIRE MODEL AT END OF TIME STEP   73, STRESS PERIOD   2
  ---------------------------------------------------------------------------------------------------

     CUMULATIVE VOLUME      L**3       RATES FOR THIS TIME STEP      L**3/T          PACKAGE NAME    
     ------------------                 ------------------------                     ----------------

           IN:                                      IN:
           ---                                      ---
              STO-SS =           0.0000                STO-SS =           0.0000     STORAGE                          
                 WEL =           0.0000                   WEL =           0.0000     WEL1                             
                 WEL =           0.1730                   WEL =       5.0000E-04     WEL2                             

            TOTAL IN =           0.1730              TOTAL IN =       5.0000E-04

          OUT:                                     OUT:
          ----                                     ----
              STO-SS =           0.0000                STO-SS =           0.0000     STORAGE                          
                 WEL =           0.1730                   WEL =       5.0000E-04     WEL1                             
                 WEL =           0.0000                   WEL =           0.0000     WEL2                             

           TOTAL OUT =           0.1730             TOTAL OUT =       5.0000E-04

            IN - OUT =       4.0000E-11              IN - OUT =      -1.0842E-19

 PERCENT DISCREPANCY =           0.00     PERCENT DISCREPANCY =          -0.00




         TIME SUMMARY AT END OF TIME STEP   73 IN STRESS PERIOD    2
                    SECONDS     MINUTES      HOURS       DAYS        YEARS
                    -----------------------------------------------------------
   TIME STEP LENGTH 1.72800E+05  2880.0      48.000      2.0000     5.47570E-03
 STRESS PERIOD TIME 1.26144E+07 2.10240E+05  3504.0      146.00     0.39973    
         TOTAL TIME 2.98944E+07 4.98240E+05  8304.0      346.00     0.94730    


end timestep


start timestep kper="2" kstp="74" mode="normal"

 UBDSV1 SAVING           STO-SS ON UNIT   1027 AT TIME STEP     74, STRESS PERIOD      2
 UBDSV1 SAVING     FLOW-JA-FACE ON UNIT   1027 AT TIME STEP     74, STRESS PERIOD      2

 WEL PACKAGE (WEL1) FLOW RATES   PERIOD      2   STEP       74
 -----------------------------------------------
   NUMBER   CELLID                    RATE      
 -----------------------------------------------
     1      (1,17,17)            -5.00000000E-05
     2      (1,33,17)            -5.00000000E-05
     3      (1,9,26)             -5.00000000E-05
     4      (1,17,35)            -5.00000000E-05
     5      (1,33,35)            -5.00000000E-05
     6      (1,26,26)            -5.00000000E-05
     7      (1,41,26)            -5.00000000E-05
     8      (1,4,39)             -5.00000000E-05
     9      (1,27,3)             -5.00000000E-05
     10     (1,46,46)            -5.00000000E-05
 -----------------------------------------------




 WEL PACKAGE (WEL2) FLOW RATES   PERIOD      2   STEP       74
 -----------------------------------------------
   NUMBER   CELLID                    RATE      
 -----------------------------------------------
     1      (1,17,26)             2.50000000E-04
     2      (1,33,26)             2.50000000E-04
 -----------------------------------------------




 HEAD WILL BE SAVED ON UNIT 1028 AT END OF TIME STEP   74, STRESS PERIOD    2


  VOLUME BUDGET FOR ENTIRE MODEL AT END OF TIME STEP   74, STRESS PERIOD   2
  ---------------------------------------------------------------------------------------------------

     CUMULATIVE VOLUME      L**3       RATES FOR THIS TIME STEP      L**3/T          PACKAGE NAME    
     ------------------                 ------------------------                     ----------------

           IN:                                      IN:
           ---                                      ---
              STO-SS =           0.0000                STO-SS =           0.0000     STORAGE                          
                 WEL =           0.0000                   WEL =           0.0000     WEL1                             
                 WEL =           0.1740                   WEL =       5.0000E-04     WEL2                             

            TOTAL IN =           0.1740              TOTAL IN =       5.0000E-04

          OUT:                                     OUT:
          ----                                     ----
              STO-SS =           0.0000                STO-SS =           0.0000     STORAGE                          
                 WEL =           0.1740                   WEL =       5.0000E-04     WEL1                             
                 WEL =           0.0000                   WEL =           0.0000     WEL2                             

           TOTAL OUT =           0.1740             TOTAL OUT =       5.0000E-04

            IN - OUT =       4.0000E-11              IN - OUT =      -1.0842E-19

 PERCENT DISCREPANCY =           0.00     PERCENT DISCREPANCY =          -0.00




         TIME SUMMARY AT END OF TIME STEP   74 IN STRESS PERIOD    2
                    SECONDS     MINUTES      HOURS       DAYS        YEARS
                    -----------------------------------------------------------
   TIME STEP LENGTH 1.72800E+05  2880.0      48.000      2.0000     5.47570E-03
 STRESS PERIOD TIME 1.27872E+07 2.13120E+05  3552.0      148.00     0.40520    
         TOTAL TIME 3.00672E+07 5.01120E+05  8352.0      348.00     0.95277    


end timestep


start timestep kper="2" kstp="75" mode="normal"

 UBDSV1 SAVING           STO-SS ON UNIT   1027 AT TIME STEP     75, STRESS PERIOD      2
 UBDSV1 SAVING     FLOW-JA-FACE ON UNIT   1027 AT TIME STEP     75, STRESS PERIOD      2

 WEL PACKAGE (WEL1) FLOW RATES   PERIOD      2   STEP       75
 -----------------------------------------------
   NUMBER   CELLID                    RATE      
 -----------------------------------------------
     1      (1,17,17)            -5.00000000E-05
     2      (1,33,17)            -5.00000000E-05
     3      (1,9,26)             -5.00000000E-05
     4      (1,17,35)            -5.00000000E-05
     5      (1,33,35)            -5.00000000E-05
     6      (1,26,26)            -5.00000000E-05
     7      (1,41,26)            -5.00000000E-05
     8      (1,4,39)             -5.00000000E-05
     9      (1,27,3)             -5.00000000E-05
     10     (1,46,46)            -5.00000000E-05
 -----------------------------------------------




 WEL PACKAGE (WEL2) FLOW RATES   PERIOD      2   STEP       75
 -----------------------------------------------
   NUMBER   CELLID                    RATE      
 -----------------------------------------------
     1      (1,17,26)             2.50000000E-04
     2      (1,33,26)             2.50000000E-04
 -----------------------------------------------




 HEAD WILL BE SAVED ON UNIT 1028 AT END OF TIME STEP   75, STRESS PERIOD    2


  VOLUME BUDGET FOR ENTIRE MODEL AT END OF TIME STEP   75, STRESS PERIOD   2
  ---------------------------------------------------------------------------------------------------

     CUMULATIVE VOLUME      L**3       RATES FOR THIS TIME STEP      L**3/T          PACKAGE NAME    
     ------------------                 ------------------------                     ----------------

           IN:                                      IN:
           ---                                      ---
              STO-SS =           0.0000                STO-SS =           0.0000     STORAGE                          
                 WEL =           0.0000                   WEL =           0.0000     WEL1                             
                 WEL =           0.1750                   WEL =       5.0000E-04     WEL2                             

            TOTAL IN =           0.1750              TOTAL IN =       5.0000E-04

          OUT:                                     OUT:
          ----                                     ----
              STO-SS =           0.0000                STO-SS =           0.0000     STORAGE                          
                 WEL =           0.1750                   WEL =       5.0000E-04     WEL1                             
                 WEL =           0.0000                   WEL =           0.0000     WEL2                             

           TOTAL OUT =           0.1750             TOTAL OUT =       5.0000E-04

            IN - OUT =       4.0000E-11              IN - OUT =      -1.0842E-19

 PERCENT DISCREPANCY =           0.00     PERCENT DISCREPANCY =          -0.00




         TIME SUMMARY AT END OF TIME STEP   75 IN STRESS PERIOD    2
                    SECONDS     MINUTES      HOURS       DAYS        YEARS
                    -----------------------------------------------------------
   TIME STEP LENGTH 1.72800E+05  2880.0      48.000      2.0000     5.47570E-03
 STRESS PERIOD TIME 1.29600E+07 2.16000E+05  3600.0      150.00     0.41068    
         TOTAL TIME 3.02400E+07 5.04000E+05  8400.0      350.00     0.95825    


end timestep


start timestep kper="2" kstp="76" mode="normal"

 UBDSV1 SAVING           STO-SS ON UNIT   1027 AT TIME STEP     76, STRESS PERIOD      2
 UBDSV1 SAVING     FLOW-JA-FACE ON UNIT   1027 AT TIME STEP     76, STRESS PERIOD      2

 WEL PACKAGE (WEL1) FLOW RATES   PERIOD      2   STEP       76
 -----------------------------------------------
   NUMBER   CELLID                    RATE      
 -----------------------------------------------
     1      (1,17,17)            -5.00000000E-05
     2      (1,33,17)            -5.00000000E-05
     3      (1,9,26)             -5.00000000E-05
     4      (1,17,35)            -5.00000000E-05
     5      (1,33,35)            -5.00000000E-05
     6      (1,26,26)            -5.00000000E-05
     7      (1,41,26)            -5.00000000E-05
     8      (1,4,39)             -5.00000000E-05
     9      (1,27,3)             -5.00000000E-05
     10     (1,46,46)            -5.00000000E-05
 -----------------------------------------------




 WEL PACKAGE (WEL2) FLOW RATES   PERIOD      2   STEP       76
 -----------------------------------------------
   NUMBER   CELLID                    RATE      
 -----------------------------------------------
     1      (1,17,26)             2.50000000E-04
     2      (1,33,26)             2.50000000E-04
 -----------------------------------------------




 HEAD WILL BE SAVED ON UNIT 1028 AT END OF TIME STEP   76, STRESS PERIOD    2


  VOLUME BUDGET FOR ENTIRE MODEL AT END OF TIME STEP   76, STRESS PERIOD   2
  ---------------------------------------------------------------------------------------------------

     CUMULATIVE VOLUME      L**3       RATES FOR THIS TIME STEP      L**3/T          PACKAGE NAME    
     ------------------                 ------------------------                     ----------------

           IN:                                      IN:
           ---                                      ---
              STO-SS =           0.0000                STO-SS =           0.0000     STORAGE                          
                 WEL =           0.0000                   WEL =           0.0000     WEL1                             
                 WEL =           0.1760                   WEL =       5.0000E-04     WEL2                             

            TOTAL IN =           0.1760              TOTAL IN =       5.0000E-04

          OUT:                                     OUT:
          ----                                     ----
              STO-SS =           0.0000                STO-SS =           0.0000     STORAGE                          
                 WEL =           0.1760                   WEL =       5.0000E-04     WEL1                             
                 WEL =           0.0000                   WEL =           0.0000     WEL2                             

           TOTAL OUT =           0.1760             TOTAL OUT =       5.0000E-04

            IN - OUT =       4.0000E-11              IN - OUT =      -1.0842E-19

 PERCENT DISCREPANCY =           0.00     PERCENT DISCREPANCY =          -0.00




         TIME SUMMARY AT END OF TIME STEP   76 IN STRESS PERIOD    2
                    SECONDS     MINUTES      HOURS       DAYS        YEARS
                    -----------------------------------------------------------
   TIME STEP LENGTH 1.72800E+05  2880.0      48.000      2.0000     5.47570E-03
 STRESS PERIOD TIME 1.31328E+07 2.18880E+05  3648.0      152.00     0.41615    
         TOTAL TIME 3.04128E+07 5.06880E+05  8448.0      352.00     0.96372    


end timestep


start timestep kper="2" kstp="77" mode="normal"

 UBDSV1 SAVING           STO-SS ON UNIT   1027 AT TIME STEP     77, STRESS PERIOD      2
 UBDSV1 SAVING     FLOW-JA-FACE ON UNIT   1027 AT TIME STEP     77, STRESS PERIOD      2

 WEL PACKAGE (WEL1) FLOW RATES   PERIOD      2   STEP       77
 -----------------------------------------------
   NUMBER   CELLID                    RATE      
 -----------------------------------------------
     1      (1,17,17)            -5.00000000E-05
     2      (1,33,17)            -5.00000000E-05
     3      (1,9,26)             -5.00000000E-05
     4      (1,17,35)            -5.00000000E-05
     5      (1,33,35)            -5.00000000E-05
     6      (1,26,26)            -5.00000000E-05
     7      (1,41,26)            -5.00000000E-05
     8      (1,4,39)             -5.00000000E-05
     9      (1,27,3)             -5.00000000E-05
     10     (1,46,46)            -5.00000000E-05
 -----------------------------------------------




 WEL PACKAGE (WEL2) FLOW RATES   PERIOD      2   STEP       77
 -----------------------------------------------
   NUMBER   CELLID                    RATE      
 -----------------------------------------------
     1      (1,17,26)             2.50000000E-04
     2      (1,33,26)             2.50000000E-04
 -----------------------------------------------




 HEAD WILL BE SAVED ON UNIT 1028 AT END OF TIME STEP   77, STRESS PERIOD    2


  VOLUME BUDGET FOR ENTIRE MODEL AT END OF TIME STEP   77, STRESS PERIOD   2
  ---------------------------------------------------------------------------------------------------

     CUMULATIVE VOLUME      L**3       RATES FOR THIS TIME STEP      L**3/T          PACKAGE NAME    
     ------------------                 ------------------------                     ----------------

           IN:                                      IN:
           ---                                      ---
              STO-SS =           0.0000                STO-SS =           0.0000     STORAGE                          
                 WEL =           0.0000                   WEL =           0.0000     WEL1                             
                 WEL =           0.1770                   WEL =       5.0000E-04     WEL2                             

            TOTAL IN =           0.1770              TOTAL IN =       5.0000E-04

          OUT:                                     OUT:
          ----                                     ----
              STO-SS =           0.0000                STO-SS =           0.0000     STORAGE                          
                 WEL =           0.1770                   WEL =       5.0000E-04     WEL1                             
                 WEL =           0.0000                   WEL =           0.0000     WEL2                             

           TOTAL OUT =           0.1770             TOTAL OUT =       5.0000E-04

            IN - OUT =       4.0000E-11              IN - OUT =      -1.0842E-19

 PERCENT DISCREPANCY =           0.00     PERCENT DISCREPANCY =          -0.00




         TIME SUMMARY AT END OF TIME STEP   77 IN STRESS PERIOD    2
                    SECONDS     MINUTES      HOURS       DAYS        YEARS
                    -----------------------------------------------------------
   TIME STEP LENGTH 1.72800E+05  2880.0      48.000      2.0000     5.47570E-03
 STRESS PERIOD TIME 1.33056E+07 2.21760E+05  3696.0      154.00     0.42163    
         TOTAL TIME 3.05856E+07 5.09760E+05  8496.0      354.00     0.96920    


end timestep


start timestep kper="2" kstp="78" mode="normal"

 UBDSV1 SAVING           STO-SS ON UNIT   1027 AT TIME STEP     78, STRESS PERIOD      2
 UBDSV1 SAVING     FLOW-JA-FACE ON UNIT   1027 AT TIME STEP     78, STRESS PERIOD      2

 WEL PACKAGE (WEL1) FLOW RATES   PERIOD      2   STEP       78
 -----------------------------------------------
   NUMBER   CELLID                    RATE      
 -----------------------------------------------
     1      (1,17,17)            -5.00000000E-05
     2      (1,33,17)            -5.00000000E-05
     3      (1,9,26)             -5.00000000E-05
     4      (1,17,35)            -5.00000000E-05
     5      (1,33,35)            -5.00000000E-05
     6      (1,26,26)            -5.00000000E-05
     7      (1,41,26)            -5.00000000E-05
     8      (1,4,39)             -5.00000000E-05
     9      (1,27,3)             -5.00000000E-05
     10     (1,46,46)            -5.00000000E-05
 -----------------------------------------------




 WEL PACKAGE (WEL2) FLOW RATES   PERIOD      2   STEP       78
 -----------------------------------------------
   NUMBER   CELLID                    RATE      
 -----------------------------------------------
     1      (1,17,26)             2.50000000E-04
     2      (1,33,26)             2.50000000E-04
 -----------------------------------------------




 HEAD WILL BE SAVED ON UNIT 1028 AT END OF TIME STEP   78, STRESS PERIOD    2


  VOLUME BUDGET FOR ENTIRE MODEL AT END OF TIME STEP   78, STRESS PERIOD   2
  ---------------------------------------------------------------------------------------------------

     CUMULATIVE VOLUME      L**3       RATES FOR THIS TIME STEP      L**3/T          PACKAGE NAME    
     ------------------                 ------------------------                     ----------------

           IN:                                      IN:
           ---                                      ---
              STO-SS =           0.0000                STO-SS =           0.0000     STORAGE                          
                 WEL =           0.0000                   WEL =           0.0000     WEL1                             
                 WEL =           0.1780                   WEL =       5.0000E-04     WEL2                             

            TOTAL IN =           0.1780              TOTAL IN =       5.0000E-04

          OUT:                                     OUT:
          ----                                     ----
              STO-SS =           0.0000                STO-SS =           0.0000     STORAGE                          
                 WEL =           0.1780                   WEL =       5.0000E-04     WEL1                             
                 WEL =           0.0000                   WEL =           0.0000     WEL2                             

           TOTAL OUT =           0.1780             TOTAL OUT =       5.0000E-04

            IN - OUT =       4.0000E-11              IN - OUT =      -1.0842E-19

 PERCENT DISCREPANCY =           0.00     PERCENT DISCREPANCY =          -0.00




         TIME SUMMARY AT END OF TIME STEP   78 IN STRESS PERIOD    2
                    SECONDS     MINUTES      HOURS       DAYS        YEARS
                    -----------------------------------------------------------
   TIME STEP LENGTH 1.72800E+05  2880.0      48.000      2.0000     5.47570E-03
 STRESS PERIOD TIME 1.34784E+07 2.24640E+05  3744.0      156.00     0.42710    
         TOTAL TIME 3.07584E+07 5.12640E+05  8544.0      356.00     0.97467    


end timestep


start timestep kper="2" kstp="79" mode="normal"

 UBDSV1 SAVING           STO-SS ON UNIT   1027 AT TIME STEP     79, STRESS PERIOD      2
 UBDSV1 SAVING     FLOW-JA-FACE ON UNIT   1027 AT TIME STEP     79, STRESS PERIOD      2

 WEL PACKAGE (WEL1) FLOW RATES   PERIOD      2   STEP       79
 -----------------------------------------------
   NUMBER   CELLID                    RATE      
 -----------------------------------------------
     1      (1,17,17)            -5.00000000E-05
     2      (1,33,17)            -5.00000000E-05
     3      (1,9,26)             -5.00000000E-05
     4      (1,17,35)            -5.00000000E-05
     5      (1,33,35)            -5.00000000E-05
     6      (1,26,26)            -5.00000000E-05
     7      (1,41,26)            -5.00000000E-05
     8      (1,4,39)             -5.00000000E-05
     9      (1,27,3)             -5.00000000E-05
     10     (1,46,46)            -5.00000000E-05
 -----------------------------------------------




 WEL PACKAGE (WEL2) FLOW RATES   PERIOD      2   STEP       79
 -----------------------------------------------
   NUMBER   CELLID                    RATE      
 -----------------------------------------------
     1      (1,17,26)             2.50000000E-04
     2      (1,33,26)             2.50000000E-04
 -----------------------------------------------




 HEAD WILL BE SAVED ON UNIT 1028 AT END OF TIME STEP   79, STRESS PERIOD    2


  VOLUME BUDGET FOR ENTIRE MODEL AT END OF TIME STEP   79, STRESS PERIOD   2
  ---------------------------------------------------------------------------------------------------

     CUMULATIVE VOLUME      L**3       RATES FOR THIS TIME STEP      L**3/T          PACKAGE NAME    
     ------------------                 ------------------------                     ----------------

           IN:                                      IN:
           ---                                      ---
              STO-SS =           0.0000                STO-SS =           0.0000     STORAGE                          
                 WEL =           0.0000                   WEL =           0.0000     WEL1                             
                 WEL =           0.1790                   WEL =       5.0000E-04     WEL2                             

            TOTAL IN =           0.1790              TOTAL IN =       5.0000E-04

          OUT:                                     OUT:
          ----                                     ----
              STO-SS =           0.0000                STO-SS =           0.0000     STORAGE                          
                 WEL =           0.1790                   WEL =       5.0000E-04     WEL1                             
                 WEL =           0.0000                   WEL =           0.0000     WEL2                             

           TOTAL OUT =           0.1790             TOTAL OUT =       5.0000E-04

            IN - OUT =       4.0000E-11              IN - OUT =      -1.0842E-19

 PERCENT DISCREPANCY =           0.00     PERCENT DISCREPANCY =          -0.00




         TIME SUMMARY AT END OF TIME STEP   79 IN STRESS PERIOD    2
                    SECONDS     MINUTES      HOURS       DAYS        YEARS
                    -----------------------------------------------------------
   TIME STEP LENGTH 1.72800E+05  2880.0      48.000      2.0000     5.47570E-03
 STRESS PERIOD TIME 1.36512E+07 2.27520E+05  3792.0      158.00     0.43258    
         TOTAL TIME 3.09312E+07 5.15520E+05  8592.0      358.00     0.98015    


end timestep


start timestep kper="2" kstp="80" mode="normal"

 UBDSV1 SAVING           STO-SS ON UNIT   1027 AT TIME STEP     80, STRESS PERIOD      2
 UBDSV1 SAVING     FLOW-JA-FACE ON UNIT   1027 AT TIME STEP     80, STRESS PERIOD      2

 WEL PACKAGE (WEL1) FLOW RATES   PERIOD      2   STEP       80
 -----------------------------------------------
   NUMBER   CELLID                    RATE      
 -----------------------------------------------
     1      (1,17,17)            -5.00000000E-05
     2      (1,33,17)            -5.00000000E-05
     3      (1,9,26)             -5.00000000E-05
     4      (1,17,35)            -5.00000000E-05
     5      (1,33,35)            -5.00000000E-05
     6      (1,26,26)            -5.00000000E-05
     7      (1,41,26)            -5.00000000E-05
     8      (1,4,39)             -5.00000000E-05
     9      (1,27,3)             -5.00000000E-05
     10     (1,46,46)            -5.00000000E-05
 -----------------------------------------------




 WEL PACKAGE (WEL2) FLOW RATES   PERIOD      2   STEP       80
 -----------------------------------------------
   NUMBER   CELLID                    RATE      
 -----------------------------------------------
     1      (1,17,26)             2.50000000E-04
     2      (1,33,26)             2.50000000E-04
 -----------------------------------------------




 HEAD WILL BE SAVED ON UNIT 1028 AT END OF TIME STEP   80, STRESS PERIOD    2


  VOLUME BUDGET FOR ENTIRE MODEL AT END OF TIME STEP   80, STRESS PERIOD   2
  ---------------------------------------------------------------------------------------------------

     CUMULATIVE VOLUME      L**3       RATES FOR THIS TIME STEP      L**3/T          PACKAGE NAME    
     ------------------                 ------------------------                     ----------------

           IN:                                      IN:
           ---                                      ---
              STO-SS =           0.0000                STO-SS =           0.0000     STORAGE                          
                 WEL =           0.0000                   WEL =           0.0000     WEL1                             
                 WEL =           0.1800                   WEL =       5.0000E-04     WEL2                             

            TOTAL IN =           0.1800              TOTAL IN =       5.0000E-04

          OUT:                                     OUT:
          ----                                     ----
              STO-SS =           0.0000                STO-SS =           0.0000     STORAGE                          
                 WEL =           0.1800                   WEL =       5.0000E-04     WEL1                             
                 WEL =           0.0000                   WEL =           0.0000     WEL2                             

           TOTAL OUT =           0.1800             TOTAL OUT =       5.0000E-04

            IN - OUT =       4.0000E-11              IN - OUT =      -1.0842E-19

 PERCENT DISCREPANCY =           0.00     PERCENT DISCREPANCY =          -0.00




         TIME SUMMARY AT END OF TIME STEP   80 IN STRESS PERIOD    2
                    SECONDS     MINUTES      HOURS       DAYS        YEARS
                    -----------------------------------------------------------
   TIME STEP LENGTH 1.72800E+05  2880.0      48.000      2.0000     5.47570E-03
 STRESS PERIOD TIME 1.38240E+07 2.30400E+05  3840.0      160.00     0.43806    
         TOTAL TIME 3.11040E+07 5.18400E+05  8640.0      360.00     0.98563    


end timestep


start timestep kper="2" kstp="81" mode="normal"

 UBDSV1 SAVING           STO-SS ON UNIT   1027 AT TIME STEP     81, STRESS PERIOD      2
 UBDSV1 SAVING     FLOW-JA-FACE ON UNIT   1027 AT TIME STEP     81, STRESS PERIOD      2

 WEL PACKAGE (WEL1) FLOW RATES   PERIOD      2   STEP       81
 -----------------------------------------------
   NUMBER   CELLID                    RATE      
 -----------------------------------------------
     1      (1,17,17)            -5.00000000E-05
     2      (1,33,17)            -5.00000000E-05
     3      (1,9,26)             -5.00000000E-05
     4      (1,17,35)            -5.00000000E-05
     5      (1,33,35)            -5.00000000E-05
     6      (1,26,26)            -5.00000000E-05
     7      (1,41,26)            -5.00000000E-05
     8      (1,4,39)             -5.00000000E-05
     9      (1,27,3)             -5.00000000E-05
     10     (1,46,46)            -5.00000000E-05
 -----------------------------------------------




 WEL PACKAGE (WEL2) FLOW RATES   PERIOD      2   STEP       81
 -----------------------------------------------
   NUMBER   CELLID                    RATE      
 -----------------------------------------------
     1      (1,17,26)             2.50000000E-04
     2      (1,33,26)             2.50000000E-04
 -----------------------------------------------




 HEAD WILL BE SAVED ON UNIT 1028 AT END OF TIME STEP   81, STRESS PERIOD    2


  VOLUME BUDGET FOR ENTIRE MODEL AT END OF TIME STEP   81, STRESS PERIOD   2
  ---------------------------------------------------------------------------------------------------

     CUMULATIVE VOLUME      L**3       RATES FOR THIS TIME STEP      L**3/T          PACKAGE NAME    
     ------------------                 ------------------------                     ----------------

           IN:                                      IN:
           ---                                      ---
              STO-SS =           0.0000                STO-SS =           0.0000     STORAGE                          
                 WEL =           0.0000                   WEL =           0.0000     WEL1                             
                 WEL =           0.1810                   WEL =       5.0000E-04     WEL2                             

            TOTAL IN =           0.1810              TOTAL IN =       5.0000E-04

          OUT:                                     OUT:
          ----                                     ----
              STO-SS =           0.0000                STO-SS =           0.0000     STORAGE                          
                 WEL =           0.1810                   WEL =       5.0000E-04     WEL1                             
                 WEL =           0.0000                   WEL =           0.0000     WEL2                             

           TOTAL OUT =           0.1810             TOTAL OUT =       5.0000E-04

            IN - OUT =       4.0000E-11              IN - OUT =      -1.0842E-19

 PERCENT DISCREPANCY =           0.00     PERCENT DISCREPANCY =          -0.00




         TIME SUMMARY AT END OF TIME STEP   81 IN STRESS PERIOD    2
                    SECONDS     MINUTES      HOURS       DAYS        YEARS
                    -----------------------------------------------------------
   TIME STEP LENGTH 1.72800E+05  2880.0      48.000      2.0000     5.47570E-03
 STRESS PERIOD TIME 1.39968E+07 2.33280E+05  3888.0      162.00     0.44353    
         TOTAL TIME 3.12768E+07 5.21280E+05  8688.0      362.00     0.99110    


end timestep


start timestep kper="2" kstp="82" mode="normal"

 UBDSV1 SAVING           STO-SS ON UNIT   1027 AT TIME STEP     82, STRESS PERIOD      2
 UBDSV1 SAVING     FLOW-JA-FACE ON UNIT   1027 AT TIME STEP     82, STRESS PERIOD      2

 WEL PACKAGE (WEL1) FLOW RATES   PERIOD      2   STEP       82
 -----------------------------------------------
   NUMBER   CELLID                    RATE      
 -----------------------------------------------
     1      (1,17,17)            -5.00000000E-05
     2      (1,33,17)            -5.00000000E-05
     3      (1,9,26)             -5.00000000E-05
     4      (1,17,35)            -5.00000000E-05
     5      (1,33,35)            -5.00000000E-05
     6      (1,26,26)            -5.00000000E-05
     7      (1,41,26)            -5.00000000E-05
     8      (1,4,39)             -5.00000000E-05
     9      (1,27,3)             -5.00000000E-05
     10     (1,46,46)            -5.00000000E-05
 -----------------------------------------------




 WEL PACKAGE (WEL2) FLOW RATES   PERIOD      2   STEP       82
 -----------------------------------------------
   NUMBER   CELLID                    RATE      
 -----------------------------------------------
     1      (1,17,26)             2.50000000E-04
     2      (1,33,26)             2.50000000E-04
 -----------------------------------------------




 HEAD WILL BE SAVED ON UNIT 1028 AT END OF TIME STEP   82, STRESS PERIOD    2


  VOLUME BUDGET FOR ENTIRE MODEL AT END OF TIME STEP   82, STRESS PERIOD   2
  ---------------------------------------------------------------------------------------------------

     CUMULATIVE VOLUME      L**3       RATES FOR THIS TIME STEP      L**3/T          PACKAGE NAME    
     ------------------                 ------------------------                     ----------------

           IN:                                      IN:
           ---                                      ---
              STO-SS =           0.0000                STO-SS =           0.0000     STORAGE                          
                 WEL =           0.0000                   WEL =           0.0000     WEL1                             
                 WEL =           0.1820                   WEL =       5.0000E-04     WEL2                             

            TOTAL IN =           0.1820              TOTAL IN =       5.0000E-04

          OUT:                                     OUT:
          ----                                     ----
              STO-SS =           0.0000                STO-SS =           0.0000     STORAGE                          
                 WEL =           0.1820                   WEL =       5.0000E-04     WEL1                             
                 WEL =           0.0000                   WEL =           0.0000     WEL2                             

           TOTAL OUT =           0.1820             TOTAL OUT =       5.0000E-04

            IN - OUT =       4.0000E-11              IN - OUT =      -1.0842E-19

 PERCENT DISCREPANCY =           0.00     PERCENT DISCREPANCY =          -0.00




         TIME SUMMARY AT END OF TIME STEP   82 IN STRESS PERIOD    2
                    SECONDS     MINUTES      HOURS       DAYS        YEARS
                    -----------------------------------------------------------
   TIME STEP LENGTH 1.72800E+05  2880.0      48.000      2.0000     5.47570E-03
 STRESS PERIOD TIME 1.41696E+07 2.36160E+05  3936.0      164.00     0.44901    
         TOTAL TIME 3.14496E+07 5.24160E+05  8736.0      364.00     0.99658    


end timestep


start timestep kper="2" kstp="83" mode="normal"

 UBDSV1 SAVING           STO-SS ON UNIT   1027 AT TIME STEP     83, STRESS PERIOD      2
 UBDSV1 SAVING     FLOW-JA-FACE ON UNIT   1027 AT TIME STEP     83, STRESS PERIOD      2

 WEL PACKAGE (WEL1) FLOW RATES   PERIOD      2   STEP       83
 -----------------------------------------------
   NUMBER   CELLID                    RATE      
 -----------------------------------------------
     1      (1,17,17)            -5.00000000E-05
     2      (1,33,17)            -5.00000000E-05
     3      (1,9,26)             -5.00000000E-05
     4      (1,17,35)            -5.00000000E-05
     5      (1,33,35)            -5.00000000E-05
     6      (1,26,26)            -5.00000000E-05
     7      (1,41,26)            -5.00000000E-05
     8      (1,4,39)             -5.00000000E-05
     9      (1,27,3)             -5.00000000E-05
     10     (1,46,46)            -5.00000000E-05
 -----------------------------------------------




 WEL PACKAGE (WEL2) FLOW RATES   PERIOD      2   STEP       83
 -----------------------------------------------
   NUMBER   CELLID                    RATE      
 -----------------------------------------------
     1      (1,17,26)             2.50000000E-04
     2      (1,33,26)             2.50000000E-04
 -----------------------------------------------




 HEAD WILL BE SAVED ON UNIT 1028 AT END OF TIME STEP   83, STRESS PERIOD    2


  VOLUME BUDGET FOR ENTIRE MODEL AT END OF TIME STEP   83, STRESS PERIOD   2
  ---------------------------------------------------------------------------------------------------

     CUMULATIVE VOLUME      L**3       RATES FOR THIS TIME STEP      L**3/T          PACKAGE NAME    
     ------------------                 ------------------------                     ----------------

           IN:                                      IN:
           ---                                      ---
              STO-SS =           0.0000                STO-SS =           0.0000     STORAGE                          
                 WEL =           0.0000                   WEL =           0.0000     WEL1                             
                 WEL =           0.1830                   WEL =       5.0000E-04     WEL2                             

            TOTAL IN =           0.1830              TOTAL IN =       5.0000E-04

          OUT:                                     OUT:
          ----                                     ----
              STO-SS =           0.0000                STO-SS =           0.0000     STORAGE                          
                 WEL =           0.1830                   WEL =       5.0000E-04     WEL1                             
                 WEL =           0.0000                   WEL =           0.0000     WEL2                             

           TOTAL OUT =           0.1830             TOTAL OUT =       5.0000E-04

            IN - OUT =       4.0000E-11              IN - OUT =      -1.0842E-19

 PERCENT DISCREPANCY =           0.00     PERCENT DISCREPANCY =          -0.00




         TIME SUMMARY AT END OF TIME STEP   83 IN STRESS PERIOD    2
                    SECONDS     MINUTES      HOURS       DAYS        YEARS
                    -----------------------------------------------------------
   TIME STEP LENGTH 1.72800E+05  2880.0      48.000      2.0000     5.47570E-03
 STRESS PERIOD TIME 1.43424E+07 2.39040E+05  3984.0      166.00     0.45448    
         TOTAL TIME 3.16224E+07 5.27040E+05  8784.0      366.00      1.0021    


end timestep


start timestep kper="2" kstp="84" mode="normal"

 UBDSV1 SAVING           STO-SS ON UNIT   1027 AT TIME STEP     84, STRESS PERIOD      2
 UBDSV1 SAVING     FLOW-JA-FACE ON UNIT   1027 AT TIME STEP     84, STRESS PERIOD      2

 WEL PACKAGE (WEL1) FLOW RATES   PERIOD      2   STEP       84
 -----------------------------------------------
   NUMBER   CELLID                    RATE      
 -----------------------------------------------
     1      (1,17,17)            -5.00000000E-05
     2      (1,33,17)            -5.00000000E-05
     3      (1,9,26)             -5.00000000E-05
     4      (1,17,35)            -5.00000000E-05
     5      (1,33,35)            -5.00000000E-05
     6      (1,26,26)            -5.00000000E-05
     7      (1,41,26)            -5.00000000E-05
     8      (1,4,39)             -5.00000000E-05
     9      (1,27,3)             -5.00000000E-05
     10     (1,46,46)            -5.00000000E-05
 -----------------------------------------------




 WEL PACKAGE (WEL2) FLOW RATES   PERIOD      2   STEP       84
 -----------------------------------------------
   NUMBER   CELLID                    RATE      
 -----------------------------------------------
     1      (1,17,26)             2.50000000E-04
     2      (1,33,26)             2.50000000E-04
 -----------------------------------------------




 HEAD WILL BE SAVED ON UNIT 1028 AT END OF TIME STEP   84, STRESS PERIOD    2


  VOLUME BUDGET FOR ENTIRE MODEL AT END OF TIME STEP   84, STRESS PERIOD   2
  ---------------------------------------------------------------------------------------------------

     CUMULATIVE VOLUME      L**3       RATES FOR THIS TIME STEP      L**3/T          PACKAGE NAME    
     ------------------                 ------------------------                     ----------------

           IN:                                      IN:
           ---                                      ---
              STO-SS =           0.0000                STO-SS =           0.0000     STORAGE                          
                 WEL =           0.0000                   WEL =           0.0000     WEL1                             
                 WEL =           0.1840                   WEL =       5.0000E-04     WEL2                             

            TOTAL IN =           0.1840              TOTAL IN =       5.0000E-04

          OUT:                                     OUT:
          ----                                     ----
              STO-SS =           0.0000                STO-SS =           0.0000     STORAGE                          
                 WEL =           0.1840                   WEL =       5.0000E-04     WEL1                             
                 WEL =           0.0000                   WEL =           0.0000     WEL2                             

           TOTAL OUT =           0.1840             TOTAL OUT =       5.0000E-04

            IN - OUT =       4.0000E-11              IN - OUT =      -1.0842E-19

 PERCENT DISCREPANCY =           0.00     PERCENT DISCREPANCY =          -0.00




         TIME SUMMARY AT END OF TIME STEP   84 IN STRESS PERIOD    2
                    SECONDS     MINUTES      HOURS       DAYS        YEARS
                    -----------------------------------------------------------
   TIME STEP LENGTH 1.72800E+05  2880.0      48.000      2.0000     5.47570E-03
 STRESS PERIOD TIME 1.45152E+07 2.41920E+05  4032.0      168.00     0.45996    
         TOTAL TIME 3.17952E+07 5.29920E+05  8832.0      368.00      1.0075    


end timestep


start timestep kper="2" kstp="85" mode="normal"

 UBDSV1 SAVING           STO-SS ON UNIT   1027 AT TIME STEP     85, STRESS PERIOD      2
 UBDSV1 SAVING     FLOW-JA-FACE ON UNIT   1027 AT TIME STEP     85, STRESS PERIOD      2

 WEL PACKAGE (WEL1) FLOW RATES   PERIOD      2   STEP       85
 -----------------------------------------------
   NUMBER   CELLID                    RATE      
 -----------------------------------------------
     1      (1,17,17)            -5.00000000E-05
     2      (1,33,17)            -5.00000000E-05
     3      (1,9,26)             -5.00000000E-05
     4      (1,17,35)            -5.00000000E-05
     5      (1,33,35)            -5.00000000E-05
     6      (1,26,26)            -5.00000000E-05
     7      (1,41,26)            -5.00000000E-05
     8      (1,4,39)             -5.00000000E-05
     9      (1,27,3)             -5.00000000E-05
     10     (1,46,46)            -5.00000000E-05
 -----------------------------------------------




 WEL PACKAGE (WEL2) FLOW RATES   PERIOD      2   STEP       85
 -----------------------------------------------
   NUMBER   CELLID                    RATE      
 -----------------------------------------------
     1      (1,17,26)             2.50000000E-04
     2      (1,33,26)             2.50000000E-04
 -----------------------------------------------




 HEAD WILL BE SAVED ON UNIT 1028 AT END OF TIME STEP   85, STRESS PERIOD    2


  VOLUME BUDGET FOR ENTIRE MODEL AT END OF TIME STEP   85, STRESS PERIOD   2
  ---------------------------------------------------------------------------------------------------

     CUMULATIVE VOLUME      L**3       RATES FOR THIS TIME STEP      L**3/T          PACKAGE NAME    
     ------------------                 ------------------------                     ----------------

           IN:                                      IN:
           ---                                      ---
              STO-SS =           0.0000                STO-SS =           0.0000     STORAGE                          
                 WEL =           0.0000                   WEL =           0.0000     WEL1                             
                 WEL =           0.1850                   WEL =       5.0000E-04     WEL2                             

            TOTAL IN =           0.1850              TOTAL IN =       5.0000E-04

          OUT:                                     OUT:
          ----                                     ----
              STO-SS =           0.0000                STO-SS =           0.0000     STORAGE                          
                 WEL =           0.1850                   WEL =       5.0000E-04     WEL1                             
                 WEL =           0.0000                   WEL =           0.0000     WEL2                             

           TOTAL OUT =           0.1850             TOTAL OUT =       5.0000E-04

            IN - OUT =       4.0000E-11              IN - OUT =      -1.0842E-19

 PERCENT DISCREPANCY =           0.00     PERCENT DISCREPANCY =          -0.00




         TIME SUMMARY AT END OF TIME STEP   85 IN STRESS PERIOD    2
                    SECONDS     MINUTES      HOURS       DAYS        YEARS
                    -----------------------------------------------------------
   TIME STEP LENGTH 1.72800E+05  2880.0      48.000      2.0000     5.47570E-03
 STRESS PERIOD TIME 1.46880E+07 2.44800E+05  4080.0      170.00     0.46543    
         TOTAL TIME 3.19680E+07 5.32800E+05  8880.0      370.00      1.0130    


end timestep


start timestep kper="2" kstp="86" mode="normal"

 UBDSV1 SAVING           STO-SS ON UNIT   1027 AT TIME STEP     86, STRESS PERIOD      2
 UBDSV1 SAVING     FLOW-JA-FACE ON UNIT   1027 AT TIME STEP     86, STRESS PERIOD      2

 WEL PACKAGE (WEL1) FLOW RATES   PERIOD      2   STEP       86
 -----------------------------------------------
   NUMBER   CELLID                    RATE      
 -----------------------------------------------
     1      (1,17,17)            -5.00000000E-05
     2      (1,33,17)            -5.00000000E-05
     3      (1,9,26)             -5.00000000E-05
     4      (1,17,35)            -5.00000000E-05
     5      (1,33,35)            -5.00000000E-05
     6      (1,26,26)            -5.00000000E-05
     7      (1,41,26)            -5.00000000E-05
     8      (1,4,39)             -5.00000000E-05
     9      (1,27,3)             -5.00000000E-05
     10     (1,46,46)            -5.00000000E-05
 -----------------------------------------------




 WEL PACKAGE (WEL2) FLOW RATES   PERIOD      2   STEP       86
 -----------------------------------------------
   NUMBER   CELLID                    RATE      
 -----------------------------------------------
     1      (1,17,26)             2.50000000E-04
     2      (1,33,26)             2.50000000E-04
 -----------------------------------------------




 HEAD WILL BE SAVED ON UNIT 1028 AT END OF TIME STEP   86, STRESS PERIOD    2


  VOLUME BUDGET FOR ENTIRE MODEL AT END OF TIME STEP   86, STRESS PERIOD   2
  ---------------------------------------------------------------------------------------------------

     CUMULATIVE VOLUME      L**3       RATES FOR THIS TIME STEP      L**3/T          PACKAGE NAME    
     ------------------                 ------------------------                     ----------------

           IN:                                      IN:
           ---                                      ---
              STO-SS =           0.0000                STO-SS =           0.0000     STORAGE                          
                 WEL =           0.0000                   WEL =           0.0000     WEL1                             
                 WEL =           0.1860                   WEL =       5.0000E-04     WEL2                             

            TOTAL IN =           0.1860              TOTAL IN =       5.0000E-04

          OUT:                                     OUT:
          ----                                     ----
              STO-SS =           0.0000                STO-SS =           0.0000     STORAGE                          
                 WEL =           0.1860                   WEL =       5.0000E-04     WEL1                             
                 WEL =           0.0000                   WEL =           0.0000     WEL2                             

           TOTAL OUT =           0.1860             TOTAL OUT =       5.0000E-04

            IN - OUT =       4.0000E-11              IN - OUT =      -1.0842E-19

 PERCENT DISCREPANCY =           0.00     PERCENT DISCREPANCY =          -0.00




         TIME SUMMARY AT END OF TIME STEP   86 IN STRESS PERIOD    2
                    SECONDS     MINUTES      HOURS       DAYS        YEARS
                    -----------------------------------------------------------
   TIME STEP LENGTH 1.72800E+05  2880.0      48.000      2.0000     5.47570E-03
 STRESS PERIOD TIME 1.48608E+07 2.47680E+05  4128.0      172.00     0.47091    
         TOTAL TIME 3.21408E+07 5.35680E+05  8928.0      372.00      1.0185    


end timestep


start timestep kper="2" kstp="87" mode="normal"

 UBDSV1 SAVING           STO-SS ON UNIT   1027 AT TIME STEP     87, STRESS PERIOD      2
 UBDSV1 SAVING     FLOW-JA-FACE ON UNIT   1027 AT TIME STEP     87, STRESS PERIOD      2

 WEL PACKAGE (WEL1) FLOW RATES   PERIOD      2   STEP       87
 -----------------------------------------------
   NUMBER   CELLID                    RATE      
 -----------------------------------------------
     1      (1,17,17)            -5.00000000E-05
     2      (1,33,17)            -5.00000000E-05
     3      (1,9,26)             -5.00000000E-05
     4      (1,17,35)            -5.00000000E-05
     5      (1,33,35)            -5.00000000E-05
     6      (1,26,26)            -5.00000000E-05
     7      (1,41,26)            -5.00000000E-05
     8      (1,4,39)             -5.00000000E-05
     9      (1,27,3)             -5.00000000E-05
     10     (1,46,46)            -5.00000000E-05
 -----------------------------------------------




 WEL PACKAGE (WEL2) FLOW RATES   PERIOD      2   STEP       87
 -----------------------------------------------
   NUMBER   CELLID                    RATE      
 -----------------------------------------------
     1      (1,17,26)             2.50000000E-04
     2      (1,33,26)             2.50000000E-04
 -----------------------------------------------




 HEAD WILL BE SAVED ON UNIT 1028 AT END OF TIME STEP   87, STRESS PERIOD    2


  VOLUME BUDGET FOR ENTIRE MODEL AT END OF TIME STEP   87, STRESS PERIOD   2
  ---------------------------------------------------------------------------------------------------

     CUMULATIVE VOLUME      L**3       RATES FOR THIS TIME STEP      L**3/T          PACKAGE NAME    
     ------------------                 ------------------------                     ----------------

           IN:                                      IN:
           ---                                      ---
              STO-SS =           0.0000                STO-SS =           0.0000     STORAGE                          
                 WEL =           0.0000                   WEL =           0.0000     WEL1                             
                 WEL =           0.1870                   WEL =       5.0000E-04     WEL2                             

            TOTAL IN =           0.1870              TOTAL IN =       5.0000E-04

          OUT:                                     OUT:
          ----                                     ----
              STO-SS =           0.0000                STO-SS =           0.0000     STORAGE                          
                 WEL =           0.1870                   WEL =       5.0000E-04     WEL1                             
                 WEL =           0.0000                   WEL =           0.0000     WEL2                             

           TOTAL OUT =           0.1870             TOTAL OUT =       5.0000E-04

            IN - OUT =       4.0000E-11              IN - OUT =      -1.0842E-19

 PERCENT DISCREPANCY =           0.00     PERCENT DISCREPANCY =          -0.00




         TIME SUMMARY AT END OF TIME STEP   87 IN STRESS PERIOD    2
                    SECONDS     MINUTES      HOURS       DAYS        YEARS
                    -----------------------------------------------------------
   TIME STEP LENGTH 1.72800E+05  2880.0      48.000      2.0000     5.47570E-03
 STRESS PERIOD TIME 1.50336E+07 2.50560E+05  4176.0      174.00     0.47639    
         TOTAL TIME 3.23136E+07 5.38560E+05  8976.0      374.00      1.0240    


end timestep


start timestep kper="2" kstp="88" mode="normal"

 UBDSV1 SAVING           STO-SS ON UNIT   1027 AT TIME STEP     88, STRESS PERIOD      2
 UBDSV1 SAVING     FLOW-JA-FACE ON UNIT   1027 AT TIME STEP     88, STRESS PERIOD      2

 WEL PACKAGE (WEL1) FLOW RATES   PERIOD      2   STEP       88
 -----------------------------------------------
   NUMBER   CELLID                    RATE      
 -----------------------------------------------
     1      (1,17,17)            -5.00000000E-05
     2      (1,33,17)            -5.00000000E-05
     3      (1,9,26)             -5.00000000E-05
     4      (1,17,35)            -5.00000000E-05
     5      (1,33,35)            -5.00000000E-05
     6      (1,26,26)            -5.00000000E-05
     7      (1,41,26)            -5.00000000E-05
     8      (1,4,39)             -5.00000000E-05
     9      (1,27,3)             -5.00000000E-05
     10     (1,46,46)            -5.00000000E-05
 -----------------------------------------------




 WEL PACKAGE (WEL2) FLOW RATES   PERIOD      2   STEP       88
 -----------------------------------------------
   NUMBER   CELLID                    RATE      
 -----------------------------------------------
     1      (1,17,26)             2.50000000E-04
     2      (1,33,26)             2.50000000E-04
 -----------------------------------------------




 HEAD WILL BE SAVED ON UNIT 1028 AT END OF TIME STEP   88, STRESS PERIOD    2


  VOLUME BUDGET FOR ENTIRE MODEL AT END OF TIME STEP   88, STRESS PERIOD   2
  ---------------------------------------------------------------------------------------------------

     CUMULATIVE VOLUME      L**3       RATES FOR THIS TIME STEP      L**3/T          PACKAGE NAME    
     ------------------                 ------------------------                     ----------------

           IN:                                      IN:
           ---                                      ---
              STO-SS =           0.0000                STO-SS =           0.0000     STORAGE                          
                 WEL =           0.0000                   WEL =           0.0000     WEL1                             
                 WEL =           0.1880                   WEL =       5.0000E-04     WEL2                             

            TOTAL IN =           0.1880              TOTAL IN =       5.0000E-04

          OUT:                                     OUT:
          ----                                     ----
              STO-SS =           0.0000                STO-SS =           0.0000     STORAGE                          
                 WEL =           0.1880                   WEL =       5.0000E-04     WEL1                             
                 WEL =           0.0000                   WEL =           0.0000     WEL2                             

           TOTAL OUT =           0.1880             TOTAL OUT =       5.0000E-04

            IN - OUT =       4.0000E-11              IN - OUT =      -1.0842E-19

 PERCENT DISCREPANCY =           0.00     PERCENT DISCREPANCY =          -0.00




         TIME SUMMARY AT END OF TIME STEP   88 IN STRESS PERIOD    2
                    SECONDS     MINUTES      HOURS       DAYS        YEARS
                    -----------------------------------------------------------
   TIME STEP LENGTH 1.72800E+05  2880.0      48.000      2.0000     5.47570E-03
 STRESS PERIOD TIME 1.52064E+07 2.53440E+05  4224.0      176.00     0.48186    
         TOTAL TIME 3.24864E+07 5.41440E+05  9024.0      376.00      1.0294    


end timestep


start timestep kper="2" kstp="89" mode="normal"

 UBDSV1 SAVING           STO-SS ON UNIT   1027 AT TIME STEP     89, STRESS PERIOD      2
 UBDSV1 SAVING     FLOW-JA-FACE ON UNIT   1027 AT TIME STEP     89, STRESS PERIOD      2

 WEL PACKAGE (WEL1) FLOW RATES   PERIOD      2   STEP       89
 -----------------------------------------------
   NUMBER   CELLID                    RATE      
 -----------------------------------------------
     1      (1,17,17)            -5.00000000E-05
     2      (1,33,17)            -5.00000000E-05
     3      (1,9,26)             -5.00000000E-05
     4      (1,17,35)            -5.00000000E-05
     5      (1,33,35)            -5.00000000E-05
     6      (1,26,26)            -5.00000000E-05
     7      (1,41,26)            -5.00000000E-05
     8      (1,4,39)             -5.00000000E-05
     9      (1,27,3)             -5.00000000E-05
     10     (1,46,46)            -5.00000000E-05
 -----------------------------------------------




 WEL PACKAGE (WEL2) FLOW RATES   PERIOD      2   STEP       89
 -----------------------------------------------
   NUMBER   CELLID                    RATE      
 -----------------------------------------------
     1      (1,17,26)             2.50000000E-04
     2      (1,33,26)             2.50000000E-04
 -----------------------------------------------




 HEAD WILL BE SAVED ON UNIT 1028 AT END OF TIME STEP   89, STRESS PERIOD    2


  VOLUME BUDGET FOR ENTIRE MODEL AT END OF TIME STEP   89, STRESS PERIOD   2
  ---------------------------------------------------------------------------------------------------

     CUMULATIVE VOLUME      L**3       RATES FOR THIS TIME STEP      L**3/T          PACKAGE NAME    
     ------------------                 ------------------------                     ----------------

           IN:                                      IN:
           ---                                      ---
              STO-SS =           0.0000                STO-SS =           0.0000     STORAGE                          
                 WEL =           0.0000                   WEL =           0.0000     WEL1                             
                 WEL =           0.1890                   WEL =       5.0000E-04     WEL2                             

            TOTAL IN =           0.1890              TOTAL IN =       5.0000E-04

          OUT:                                     OUT:
          ----                                     ----
              STO-SS =           0.0000                STO-SS =           0.0000     STORAGE                          
                 WEL =           0.1890                   WEL =       5.0000E-04     WEL1                             
                 WEL =           0.0000                   WEL =           0.0000     WEL2                             

           TOTAL OUT =           0.1890             TOTAL OUT =       5.0000E-04

            IN - OUT =       4.0000E-11              IN - OUT =      -1.0842E-19

 PERCENT DISCREPANCY =           0.00     PERCENT DISCREPANCY =          -0.00




         TIME SUMMARY AT END OF TIME STEP   89 IN STRESS PERIOD    2
                    SECONDS     MINUTES      HOURS       DAYS        YEARS
                    -----------------------------------------------------------
   TIME STEP LENGTH 1.72800E+05  2880.0      48.000      2.0000     5.47570E-03
 STRESS PERIOD TIME 1.53792E+07 2.56320E+05  4272.0      178.00     0.48734    
         TOTAL TIME 3.26592E+07 5.44320E+05  9072.0      378.00      1.0349    


end timestep


start timestep kper="2" kstp="90" mode="normal"

 UBDSV1 SAVING           STO-SS ON UNIT   1027 AT TIME STEP     90, STRESS PERIOD      2
 UBDSV1 SAVING     FLOW-JA-FACE ON UNIT   1027 AT TIME STEP     90, STRESS PERIOD      2

 WEL PACKAGE (WEL1) FLOW RATES   PERIOD      2   STEP       90
 -----------------------------------------------
   NUMBER   CELLID                    RATE      
 -----------------------------------------------
     1      (1,17,17)            -5.00000000E-05
     2      (1,33,17)            -5.00000000E-05
     3      (1,9,26)             -5.00000000E-05
     4      (1,17,35)            -5.00000000E-05
     5      (1,33,35)            -5.00000000E-05
     6      (1,26,26)            -5.00000000E-05
     7      (1,41,26)            -5.00000000E-05
     8      (1,4,39)             -5.00000000E-05
     9      (1,27,3)             -5.00000000E-05
     10     (1,46,46)            -5.00000000E-05
 -----------------------------------------------




 WEL PACKAGE (WEL2) FLOW RATES   PERIOD      2   STEP       90
 -----------------------------------------------
   NUMBER   CELLID                    RATE      
 -----------------------------------------------
     1      (1,17,26)             2.50000000E-04
     2      (1,33,26)             2.50000000E-04
 -----------------------------------------------




 HEAD WILL BE SAVED ON UNIT 1028 AT END OF TIME STEP   90, STRESS PERIOD    2


  VOLUME BUDGET FOR ENTIRE MODEL AT END OF TIME STEP   90, STRESS PERIOD   2
  ---------------------------------------------------------------------------------------------------

     CUMULATIVE VOLUME      L**3       RATES FOR THIS TIME STEP      L**3/T          PACKAGE NAME    
     ------------------                 ------------------------                     ----------------

           IN:                                      IN:
           ---                                      ---
              STO-SS =           0.0000                STO-SS =           0.0000     STORAGE                          
                 WEL =           0.0000                   WEL =           0.0000     WEL1                             
                 WEL =           0.1900                   WEL =       5.0000E-04     WEL2                             

            TOTAL IN =           0.1900              TOTAL IN =       5.0000E-04

          OUT:                                     OUT:
          ----                                     ----
              STO-SS =           0.0000                STO-SS =           0.0000     STORAGE                          
                 WEL =           0.1900                   WEL =       5.0000E-04     WEL1                             
                 WEL =           0.0000                   WEL =           0.0000     WEL2                             

           TOTAL OUT =           0.1900             TOTAL OUT =       5.0000E-04

            IN - OUT =       4.0000E-11              IN - OUT =      -1.0842E-19

 PERCENT DISCREPANCY =           0.00     PERCENT DISCREPANCY =          -0.00




         TIME SUMMARY AT END OF TIME STEP   90 IN STRESS PERIOD    2
                    SECONDS     MINUTES      HOURS       DAYS        YEARS
                    -----------------------------------------------------------
   TIME STEP LENGTH 1.72800E+05  2880.0      48.000      2.0000     5.47570E-03
 STRESS PERIOD TIME 1.55520E+07 2.59200E+05  4320.0      180.00     0.49281    
         TOTAL TIME 3.28320E+07 5.47200E+05  9120.0      380.00      1.0404    


end timestep


start timestep kper="2" kstp="91" mode="normal"

 UBDSV1 SAVING           STO-SS ON UNIT   1027 AT TIME STEP     91, STRESS PERIOD      2
 UBDSV1 SAVING     FLOW-JA-FACE ON UNIT   1027 AT TIME STEP     91, STRESS PERIOD      2

 WEL PACKAGE (WEL1) FLOW RATES   PERIOD      2   STEP       91
 -----------------------------------------------
   NUMBER   CELLID                    RATE      
 -----------------------------------------------
     1      (1,17,17)            -5.00000000E-05
     2      (1,33,17)            -5.00000000E-05
     3      (1,9,26)             -5.00000000E-05
     4      (1,17,35)            -5.00000000E-05
     5      (1,33,35)            -5.00000000E-05
     6      (1,26,26)            -5.00000000E-05
     7      (1,41,26)            -5.00000000E-05
     8      (1,4,39)             -5.00000000E-05
     9      (1,27,3)             -5.00000000E-05
     10     (1,46,46)            -5.00000000E-05
 -----------------------------------------------




 WEL PACKAGE (WEL2) FLOW RATES   PERIOD      2   STEP       91
 -----------------------------------------------
   NUMBER   CELLID                    RATE      
 -----------------------------------------------
     1      (1,17,26)             2.50000000E-04
     2      (1,33,26)             2.50000000E-04
 -----------------------------------------------




 HEAD WILL BE SAVED ON UNIT 1028 AT END OF TIME STEP   91, STRESS PERIOD    2


  VOLUME BUDGET FOR ENTIRE MODEL AT END OF TIME STEP   91, STRESS PERIOD   2
  ---------------------------------------------------------------------------------------------------

     CUMULATIVE VOLUME      L**3       RATES FOR THIS TIME STEP      L**3/T          PACKAGE NAME    
     ------------------                 ------------------------                     ----------------

           IN:                                      IN:
           ---                                      ---
              STO-SS =           0.0000                STO-SS =           0.0000     STORAGE                          
                 WEL =           0.0000                   WEL =           0.0000     WEL1                             
                 WEL =           0.1910                   WEL =       5.0000E-04     WEL2                             

            TOTAL IN =           0.1910              TOTAL IN =       5.0000E-04

          OUT:                                     OUT:
          ----                                     ----
              STO-SS =           0.0000                STO-SS =           0.0000     STORAGE                          
                 WEL =           0.1910                   WEL =       5.0000E-04     WEL1                             
                 WEL =           0.0000                   WEL =           0.0000     WEL2                             

           TOTAL OUT =           0.1910             TOTAL OUT =       5.0000E-04

            IN - OUT =       4.0000E-11              IN - OUT =      -1.0842E-19

 PERCENT DISCREPANCY =           0.00     PERCENT DISCREPANCY =          -0.00




         TIME SUMMARY AT END OF TIME STEP   91 IN STRESS PERIOD    2
                    SECONDS     MINUTES      HOURS       DAYS        YEARS
                    -----------------------------------------------------------
   TIME STEP LENGTH 1.72800E+05  2880.0      48.000      2.0000     5.47570E-03
 STRESS PERIOD TIME 1.57248E+07 2.62080E+05  4368.0      182.00     0.49829    
         TOTAL TIME 3.30048E+07 5.50080E+05  9168.0      382.00      1.0459    


end timestep


start timestep kper="2" kstp="92" mode="normal"

 UBDSV1 SAVING           STO-SS ON UNIT   1027 AT TIME STEP     92, STRESS PERIOD      2
 UBDSV1 SAVING     FLOW-JA-FACE ON UNIT   1027 AT TIME STEP     92, STRESS PERIOD      2

 WEL PACKAGE (WEL1) FLOW RATES   PERIOD      2   STEP       92
 -----------------------------------------------
   NUMBER   CELLID                    RATE      
 -----------------------------------------------
     1      (1,17,17)            -5.00000000E-05
     2      (1,33,17)            -5.00000000E-05
     3      (1,9,26)             -5.00000000E-05
     4      (1,17,35)            -5.00000000E-05
     5      (1,33,35)            -5.00000000E-05
     6      (1,26,26)            -5.00000000E-05
     7      (1,41,26)            -5.00000000E-05
     8      (1,4,39)             -5.00000000E-05
     9      (1,27,3)             -5.00000000E-05
     10     (1,46,46)            -5.00000000E-05
 -----------------------------------------------




 WEL PACKAGE (WEL2) FLOW RATES   PERIOD      2   STEP       92
 -----------------------------------------------
   NUMBER   CELLID                    RATE      
 -----------------------------------------------
     1      (1,17,26)             2.50000000E-04
     2      (1,33,26)             2.50000000E-04
 -----------------------------------------------




 HEAD WILL BE SAVED ON UNIT 1028 AT END OF TIME STEP   92, STRESS PERIOD    2


  VOLUME BUDGET FOR ENTIRE MODEL AT END OF TIME STEP   92, STRESS PERIOD   2
  ---------------------------------------------------------------------------------------------------

     CUMULATIVE VOLUME      L**3       RATES FOR THIS TIME STEP      L**3/T          PACKAGE NAME    
     ------------------                 ------------------------                     ----------------

           IN:                                      IN:
           ---                                      ---
              STO-SS =           0.0000                STO-SS =           0.0000     STORAGE                          
                 WEL =           0.0000                   WEL =           0.0000     WEL1                             
                 WEL =           0.1920                   WEL =       5.0000E-04     WEL2                             

            TOTAL IN =           0.1920              TOTAL IN =       5.0000E-04

          OUT:                                     OUT:
          ----                                     ----
              STO-SS =           0.0000                STO-SS =           0.0000     STORAGE                          
                 WEL =           0.1920                   WEL =       5.0000E-04     WEL1                             
                 WEL =           0.0000                   WEL =           0.0000     WEL2                             

           TOTAL OUT =           0.1920             TOTAL OUT =       5.0000E-04

            IN - OUT =       4.0000E-11              IN - OUT =      -1.0842E-19

 PERCENT DISCREPANCY =           0.00     PERCENT DISCREPANCY =          -0.00




         TIME SUMMARY AT END OF TIME STEP   92 IN STRESS PERIOD    2
                    SECONDS     MINUTES      HOURS       DAYS        YEARS
                    -----------------------------------------------------------
   TIME STEP LENGTH 1.72800E+05  2880.0      48.000      2.0000     5.47570E-03
 STRESS PERIOD TIME 1.58976E+07 2.64960E+05  4416.0      184.00     0.50376    
         TOTAL TIME 3.31776E+07 5.52960E+05  9216.0      384.00      1.0513    


end timestep


start timestep kper="2" kstp="93" mode="normal"

 UBDSV1 SAVING           STO-SS ON UNIT   1027 AT TIME STEP     93, STRESS PERIOD      2
 UBDSV1 SAVING     FLOW-JA-FACE ON UNIT   1027 AT TIME STEP     93, STRESS PERIOD      2

 WEL PACKAGE (WEL1) FLOW RATES   PERIOD      2   STEP       93
 -----------------------------------------------
   NUMBER   CELLID                    RATE      
 -----------------------------------------------
     1      (1,17,17)            -5.00000000E-05
     2      (1,33,17)            -5.00000000E-05
     3      (1,9,26)             -5.00000000E-05
     4      (1,17,35)            -5.00000000E-05
     5      (1,33,35)            -5.00000000E-05
     6      (1,26,26)            -5.00000000E-05
     7      (1,41,26)            -5.00000000E-05
     8      (1,4,39)             -5.00000000E-05
     9      (1,27,3)             -5.00000000E-05
     10     (1,46,46)            -5.00000000E-05
 -----------------------------------------------




 WEL PACKAGE (WEL2) FLOW RATES   PERIOD      2   STEP       93
 -----------------------------------------------
   NUMBER   CELLID                    RATE      
 -----------------------------------------------
     1      (1,17,26)             2.50000000E-04
     2      (1,33,26)             2.50000000E-04
 -----------------------------------------------




 HEAD WILL BE SAVED ON UNIT 1028 AT END OF TIME STEP   93, STRESS PERIOD    2


  VOLUME BUDGET FOR ENTIRE MODEL AT END OF TIME STEP   93, STRESS PERIOD   2
  ---------------------------------------------------------------------------------------------------

     CUMULATIVE VOLUME      L**3       RATES FOR THIS TIME STEP      L**3/T          PACKAGE NAME    
     ------------------                 ------------------------                     ----------------

           IN:                                      IN:
           ---                                      ---
              STO-SS =           0.0000                STO-SS =           0.0000     STORAGE                          
                 WEL =           0.0000                   WEL =           0.0000     WEL1                             
                 WEL =           0.1930                   WEL =       5.0000E-04     WEL2                             

            TOTAL IN =           0.1930              TOTAL IN =       5.0000E-04

          OUT:                                     OUT:
          ----                                     ----
              STO-SS =           0.0000                STO-SS =           0.0000     STORAGE                          
                 WEL =           0.1930                   WEL =       5.0000E-04     WEL1                             
                 WEL =           0.0000                   WEL =           0.0000     WEL2                             

           TOTAL OUT =           0.1930             TOTAL OUT =       5.0000E-04

            IN - OUT =       4.0000E-11              IN - OUT =      -1.0842E-19

 PERCENT DISCREPANCY =           0.00     PERCENT DISCREPANCY =          -0.00




         TIME SUMMARY AT END OF TIME STEP   93 IN STRESS PERIOD    2
                    SECONDS     MINUTES      HOURS       DAYS        YEARS
                    -----------------------------------------------------------
   TIME STEP LENGTH 1.72800E+05  2880.0      48.000      2.0000     5.47570E-03
 STRESS PERIOD TIME 1.60704E+07 2.67840E+05  4464.0      186.00     0.50924    
         TOTAL TIME 3.33504E+07 5.55840E+05  9264.0      386.00      1.0568    


end timestep


start timestep kper="2" kstp="94" mode="normal"

 UBDSV1 SAVING           STO-SS ON UNIT   1027 AT TIME STEP     94, STRESS PERIOD      2
 UBDSV1 SAVING     FLOW-JA-FACE ON UNIT   1027 AT TIME STEP     94, STRESS PERIOD      2

 WEL PACKAGE (WEL1) FLOW RATES   PERIOD      2   STEP       94
 -----------------------------------------------
   NUMBER   CELLID                    RATE      
 -----------------------------------------------
     1      (1,17,17)            -5.00000000E-05
     2      (1,33,17)            -5.00000000E-05
     3      (1,9,26)             -5.00000000E-05
     4      (1,17,35)            -5.00000000E-05
     5      (1,33,35)            -5.00000000E-05
     6      (1,26,26)            -5.00000000E-05
     7      (1,41,26)            -5.00000000E-05
     8      (1,4,39)             -5.00000000E-05
     9      (1,27,3)             -5.00000000E-05
     10     (1,46,46)            -5.00000000E-05
 -----------------------------------------------




 WEL PACKAGE (WEL2) FLOW RATES   PERIOD      2   STEP       94
 -----------------------------------------------
   NUMBER   CELLID                    RATE      
 -----------------------------------------------
     1      (1,17,26)             2.50000000E-04
     2      (1,33,26)             2.50000000E-04
 -----------------------------------------------




 HEAD WILL BE SAVED ON UNIT 1028 AT END OF TIME STEP   94, STRESS PERIOD    2


  VOLUME BUDGET FOR ENTIRE MODEL AT END OF TIME STEP   94, STRESS PERIOD   2
  ---------------------------------------------------------------------------------------------------

     CUMULATIVE VOLUME      L**3       RATES FOR THIS TIME STEP      L**3/T          PACKAGE NAME    
     ------------------                 ------------------------                     ----------------

           IN:                                      IN:
           ---                                      ---
              STO-SS =           0.0000                STO-SS =           0.0000     STORAGE                          
                 WEL =           0.0000                   WEL =           0.0000     WEL1                             
                 WEL =           0.1940                   WEL =       5.0000E-04     WEL2                             

            TOTAL IN =           0.1940              TOTAL IN =       5.0000E-04

          OUT:                                     OUT:
          ----                                     ----
              STO-SS =           0.0000                STO-SS =           0.0000     STORAGE                          
                 WEL =           0.1940                   WEL =       5.0000E-04     WEL1                             
                 WEL =           0.0000                   WEL =           0.0000     WEL2                             

           TOTAL OUT =           0.1940             TOTAL OUT =       5.0000E-04

            IN - OUT =       4.0000E-11              IN - OUT =      -1.0842E-19

 PERCENT DISCREPANCY =           0.00     PERCENT DISCREPANCY =          -0.00




         TIME SUMMARY AT END OF TIME STEP   94 IN STRESS PERIOD    2
                    SECONDS     MINUTES      HOURS       DAYS        YEARS
                    -----------------------------------------------------------
   TIME STEP LENGTH 1.72800E+05  2880.0      48.000      2.0000     5.47570E-03
 STRESS PERIOD TIME 1.62432E+07 2.70720E+05  4512.0      188.00     0.51472    
         TOTAL TIME 3.35232E+07 5.58720E+05  9312.0      388.00      1.0623    


end timestep


start timestep kper="2" kstp="95" mode="normal"

 UBDSV1 SAVING           STO-SS ON UNIT   1027 AT TIME STEP     95, STRESS PERIOD      2
 UBDSV1 SAVING     FLOW-JA-FACE ON UNIT   1027 AT TIME STEP     95, STRESS PERIOD      2

 WEL PACKAGE (WEL1) FLOW RATES   PERIOD      2   STEP       95
 -----------------------------------------------
   NUMBER   CELLID                    RATE      
 -----------------------------------------------
     1      (1,17,17)            -5.00000000E-05
     2      (1,33,17)            -5.00000000E-05
     3      (1,9,26)             -5.00000000E-05
     4      (1,17,35)            -5.00000000E-05
     5      (1,33,35)            -5.00000000E-05
     6      (1,26,26)            -5.00000000E-05
     7      (1,41,26)            -5.00000000E-05
     8      (1,4,39)             -5.00000000E-05
     9      (1,27,3)             -5.00000000E-05
     10     (1,46,46)            -5.00000000E-05
 -----------------------------------------------




 WEL PACKAGE (WEL2) FLOW RATES   PERIOD      2   STEP       95
 -----------------------------------------------
   NUMBER   CELLID                    RATE      
 -----------------------------------------------
     1      (1,17,26)             2.50000000E-04
     2      (1,33,26)             2.50000000E-04
 -----------------------------------------------




 HEAD WILL BE SAVED ON UNIT 1028 AT END OF TIME STEP   95, STRESS PERIOD    2


  VOLUME BUDGET FOR ENTIRE MODEL AT END OF TIME STEP   95, STRESS PERIOD   2
  ---------------------------------------------------------------------------------------------------

     CUMULATIVE VOLUME      L**3       RATES FOR THIS TIME STEP      L**3/T          PACKAGE NAME    
     ------------------                 ------------------------                     ----------------

           IN:                                      IN:
           ---                                      ---
              STO-SS =           0.0000                STO-SS =           0.0000     STORAGE                          
                 WEL =           0.0000                   WEL =           0.0000     WEL1                             
                 WEL =           0.1950                   WEL =       5.0000E-04     WEL2                             

            TOTAL IN =           0.1950              TOTAL IN =       5.0000E-04

          OUT:                                     OUT:
          ----                                     ----
              STO-SS =           0.0000                STO-SS =           0.0000     STORAGE                          
                 WEL =           0.1950                   WEL =       5.0000E-04     WEL1                             
                 WEL =           0.0000                   WEL =           0.0000     WEL2                             

           TOTAL OUT =           0.1950             TOTAL OUT =       5.0000E-04

            IN - OUT =       4.0000E-11              IN - OUT =      -1.0842E-19

 PERCENT DISCREPANCY =           0.00     PERCENT DISCREPANCY =          -0.00




         TIME SUMMARY AT END OF TIME STEP   95 IN STRESS PERIOD    2
                    SECONDS     MINUTES      HOURS       DAYS        YEARS
                    -----------------------------------------------------------
   TIME STEP LENGTH 1.72800E+05  2880.0      48.000      2.0000     5.47570E-03
 STRESS PERIOD TIME 1.64160E+07 2.73600E+05  4560.0      190.00     0.52019    
         TOTAL TIME 3.36960E+07 5.61600E+05  9360.0      390.00      1.0678    


end timestep


start timestep kper="2" kstp="96" mode="normal"

 UBDSV1 SAVING           STO-SS ON UNIT   1027 AT TIME STEP     96, STRESS PERIOD      2
 UBDSV1 SAVING     FLOW-JA-FACE ON UNIT   1027 AT TIME STEP     96, STRESS PERIOD      2

 WEL PACKAGE (WEL1) FLOW RATES   PERIOD      2   STEP       96
 -----------------------------------------------
   NUMBER   CELLID                    RATE      
 -----------------------------------------------
     1      (1,17,17)            -5.00000000E-05
     2      (1,33,17)            -5.00000000E-05
     3      (1,9,26)             -5.00000000E-05
     4      (1,17,35)            -5.00000000E-05
     5      (1,33,35)            -5.00000000E-05
     6      (1,26,26)            -5.00000000E-05
     7      (1,41,26)            -5.00000000E-05
     8      (1,4,39)             -5.00000000E-05
     9      (1,27,3)             -5.00000000E-05
     10     (1,46,46)            -5.00000000E-05
 -----------------------------------------------




 WEL PACKAGE (WEL2) FLOW RATES   PERIOD      2   STEP       96
 -----------------------------------------------
   NUMBER   CELLID                    RATE      
 -----------------------------------------------
     1      (1,17,26)             2.50000000E-04
     2      (1,33,26)             2.50000000E-04
 -----------------------------------------------




 HEAD WILL BE SAVED ON UNIT 1028 AT END OF TIME STEP   96, STRESS PERIOD    2


  VOLUME BUDGET FOR ENTIRE MODEL AT END OF TIME STEP   96, STRESS PERIOD   2
  ---------------------------------------------------------------------------------------------------

     CUMULATIVE VOLUME      L**3       RATES FOR THIS TIME STEP      L**3/T          PACKAGE NAME    
     ------------------                 ------------------------                     ----------------

           IN:                                      IN:
           ---                                      ---
              STO-SS =           0.0000                STO-SS =           0.0000     STORAGE                          
                 WEL =           0.0000                   WEL =           0.0000     WEL1                             
                 WEL =           0.1960                   WEL =       5.0000E-04     WEL2                             

            TOTAL IN =           0.1960              TOTAL IN =       5.0000E-04

          OUT:                                     OUT:
          ----                                     ----
              STO-SS =           0.0000                STO-SS =           0.0000     STORAGE                          
                 WEL =           0.1960                   WEL =       5.0000E-04     WEL1                             
                 WEL =           0.0000                   WEL =           0.0000     WEL2                             

           TOTAL OUT =           0.1960             TOTAL OUT =       5.0000E-04

            IN - OUT =       4.0000E-11              IN - OUT =      -1.0842E-19

 PERCENT DISCREPANCY =           0.00     PERCENT DISCREPANCY =          -0.00




         TIME SUMMARY AT END OF TIME STEP   96 IN STRESS PERIOD    2
                    SECONDS     MINUTES      HOURS       DAYS        YEARS
                    -----------------------------------------------------------
   TIME STEP LENGTH 1.72800E+05  2880.0      48.000      2.0000     5.47570E-03
 STRESS PERIOD TIME 1.65888E+07 2.76480E+05  4608.0      192.00     0.52567    
         TOTAL TIME 3.38688E+07 5.64480E+05  9408.0      392.00      1.0732    


end timestep


start timestep kper="2" kstp="97" mode="normal"

 UBDSV1 SAVING           STO-SS ON UNIT   1027 AT TIME STEP     97, STRESS PERIOD      2
 UBDSV1 SAVING     FLOW-JA-FACE ON UNIT   1027 AT TIME STEP     97, STRESS PERIOD      2

 WEL PACKAGE (WEL1) FLOW RATES   PERIOD      2   STEP       97
 -----------------------------------------------
   NUMBER   CELLID                    RATE      
 -----------------------------------------------
     1      (1,17,17)            -5.00000000E-05
     2      (1,33,17)            -5.00000000E-05
     3      (1,9,26)             -5.00000000E-05
     4      (1,17,35)            -5.00000000E-05
     5      (1,33,35)            -5.00000000E-05
     6      (1,26,26)            -5.00000000E-05
     7      (1,41,26)            -5.00000000E-05
     8      (1,4,39)             -5.00000000E-05
     9      (1,27,3)             -5.00000000E-05
     10     (1,46,46)            -5.00000000E-05
 -----------------------------------------------




 WEL PACKAGE (WEL2) FLOW RATES   PERIOD      2   STEP       97
 -----------------------------------------------
   NUMBER   CELLID                    RATE      
 -----------------------------------------------
     1      (1,17,26)             2.50000000E-04
     2      (1,33,26)             2.50000000E-04
 -----------------------------------------------




 HEAD WILL BE SAVED ON UNIT 1028 AT END OF TIME STEP   97, STRESS PERIOD    2


  VOLUME BUDGET FOR ENTIRE MODEL AT END OF TIME STEP   97, STRESS PERIOD   2
  ---------------------------------------------------------------------------------------------------

     CUMULATIVE VOLUME      L**3       RATES FOR THIS TIME STEP      L**3/T          PACKAGE NAME    
     ------------------                 ------------------------                     ----------------

           IN:                                      IN:
           ---                                      ---
              STO-SS =           0.0000                STO-SS =           0.0000     STORAGE                          
                 WEL =           0.0000                   WEL =           0.0000     WEL1                             
                 WEL =           0.1970                   WEL =       5.0000E-04     WEL2                             

            TOTAL IN =           0.1970              TOTAL IN =       5.0000E-04

          OUT:                                     OUT:
          ----                                     ----
              STO-SS =           0.0000                STO-SS =           0.0000     STORAGE                          
                 WEL =           0.1970                   WEL =       5.0000E-04     WEL1                             
                 WEL =           0.0000                   WEL =           0.0000     WEL2                             

           TOTAL OUT =           0.1970             TOTAL OUT =       5.0000E-04

            IN - OUT =       4.0000E-11              IN - OUT =      -1.0842E-19

 PERCENT DISCREPANCY =           0.00     PERCENT DISCREPANCY =          -0.00




         TIME SUMMARY AT END OF TIME STEP   97 IN STRESS PERIOD    2
                    SECONDS     MINUTES      HOURS       DAYS        YEARS
                    -----------------------------------------------------------
   TIME STEP LENGTH 1.72800E+05  2880.0      48.000      2.0000     5.47570E-03
 STRESS PERIOD TIME 1.67616E+07 2.79360E+05  4656.0      194.00     0.53114    
         TOTAL TIME 3.40416E+07 5.67360E+05  9456.0      394.00      1.0787    


end timestep


start timestep kper="2" kstp="98" mode="normal"

 UBDSV1 SAVING           STO-SS ON UNIT   1027 AT TIME STEP     98, STRESS PERIOD      2
 UBDSV1 SAVING     FLOW-JA-FACE ON UNIT   1027 AT TIME STEP     98, STRESS PERIOD      2

 WEL PACKAGE (WEL1) FLOW RATES   PERIOD      2   STEP       98
 -----------------------------------------------
   NUMBER   CELLID                    RATE      
 -----------------------------------------------
     1      (1,17,17)            -5.00000000E-05
     2      (1,33,17)            -5.00000000E-05
     3      (1,9,26)             -5.00000000E-05
     4      (1,17,35)            -5.00000000E-05
     5      (1,33,35)            -5.00000000E-05
     6      (1,26,26)            -5.00000000E-05
     7      (1,41,26)            -5.00000000E-05
     8      (1,4,39)             -5.00000000E-05
     9      (1,27,3)             -5.00000000E-05
     10     (1,46,46)            -5.00000000E-05
 -----------------------------------------------




 WEL PACKAGE (WEL2) FLOW RATES   PERIOD      2   STEP       98
 -----------------------------------------------
   NUMBER   CELLID                    RATE      
 -----------------------------------------------
     1      (1,17,26)             2.50000000E-04
     2      (1,33,26)             2.50000000E-04
 -----------------------------------------------




 HEAD WILL BE SAVED ON UNIT 1028 AT END OF TIME STEP   98, STRESS PERIOD    2


  VOLUME BUDGET FOR ENTIRE MODEL AT END OF TIME STEP   98, STRESS PERIOD   2
  ---------------------------------------------------------------------------------------------------

     CUMULATIVE VOLUME      L**3       RATES FOR THIS TIME STEP      L**3/T          PACKAGE NAME    
     ------------------                 ------------------------                     ----------------

           IN:                                      IN:
           ---                                      ---
              STO-SS =           0.0000                STO-SS =           0.0000     STORAGE                          
                 WEL =           0.0000                   WEL =           0.0000     WEL1                             
                 WEL =           0.1980                   WEL =       5.0000E-04     WEL2                             

            TOTAL IN =           0.1980              TOTAL IN =       5.0000E-04

          OUT:                                     OUT:
          ----                                     ----
              STO-SS =           0.0000                STO-SS =           0.0000     STORAGE                          
                 WEL =           0.1980                   WEL =       5.0000E-04     WEL1                             
                 WEL =           0.0000                   WEL =           0.0000     WEL2                             

           TOTAL OUT =           0.1980             TOTAL OUT =       5.0000E-04

            IN - OUT =       4.0000E-11              IN - OUT =      -1.0842E-19

 PERCENT DISCREPANCY =           0.00     PERCENT DISCREPANCY =          -0.00




         TIME SUMMARY AT END OF TIME STEP   98 IN STRESS PERIOD    2
                    SECONDS     MINUTES      HOURS       DAYS        YEARS
                    -----------------------------------------------------------
   TIME STEP LENGTH 1.72800E+05  2880.0      48.000      2.0000     5.47570E-03
 STRESS PERIOD TIME 1.69344E+07 2.82240E+05  4704.0      196.00     0.53662    
         TOTAL TIME 3.42144E+07 5.70240E+05  9504.0      396.00      1.0842    


end timestep


start timestep kper="2" kstp="99" mode="normal"

 UBDSV1 SAVING           STO-SS ON UNIT   1027 AT TIME STEP     99, STRESS PERIOD      2
 UBDSV1 SAVING     FLOW-JA-FACE ON UNIT   1027 AT TIME STEP     99, STRESS PERIOD      2

 WEL PACKAGE (WEL1) FLOW RATES   PERIOD      2   STEP       99
 -----------------------------------------------
   NUMBER   CELLID                    RATE      
 -----------------------------------------------
     1      (1,17,17)            -5.00000000E-05
     2      (1,33,17)            -5.00000000E-05
     3      (1,9,26)             -5.00000000E-05
     4      (1,17,35)            -5.00000000E-05
     5      (1,33,35)            -5.00000000E-05
     6      (1,26,26)            -5.00000000E-05
     7      (1,41,26)            -5.00000000E-05
     8      (1,4,39)             -5.00000000E-05
     9      (1,27,3)             -5.00000000E-05
     10     (1,46,46)            -5.00000000E-05
 -----------------------------------------------




 WEL PACKAGE (WEL2) FLOW RATES   PERIOD      2   STEP       99
 -----------------------------------------------
   NUMBER   CELLID                    RATE      
 -----------------------------------------------
     1      (1,17,26)             2.50000000E-04
     2      (1,33,26)             2.50000000E-04
 -----------------------------------------------




 HEAD WILL BE SAVED ON UNIT 1028 AT END OF TIME STEP   99, STRESS PERIOD    2


  VOLUME BUDGET FOR ENTIRE MODEL AT END OF TIME STEP   99, STRESS PERIOD   2
  ---------------------------------------------------------------------------------------------------

     CUMULATIVE VOLUME      L**3       RATES FOR THIS TIME STEP      L**3/T          PACKAGE NAME    
     ------------------                 ------------------------                     ----------------

           IN:                                      IN:
           ---                                      ---
              STO-SS =           0.0000                STO-SS =           0.0000     STORAGE                          
                 WEL =           0.0000                   WEL =           0.0000     WEL1                             
                 WEL =           0.1990                   WEL =       5.0000E-04     WEL2                             

            TOTAL IN =           0.1990              TOTAL IN =       5.0000E-04

          OUT:                                     OUT:
          ----                                     ----
              STO-SS =           0.0000                STO-SS =           0.0000     STORAGE                          
                 WEL =           0.1990                   WEL =       5.0000E-04     WEL1                             
                 WEL =           0.0000                   WEL =           0.0000     WEL2                             

           TOTAL OUT =           0.1990             TOTAL OUT =       5.0000E-04

            IN - OUT =       4.0000E-11              IN - OUT =      -1.0842E-19

 PERCENT DISCREPANCY =           0.00     PERCENT DISCREPANCY =          -0.00




         TIME SUMMARY AT END OF TIME STEP   99 IN STRESS PERIOD    2
                    SECONDS     MINUTES      HOURS       DAYS        YEARS
                    -----------------------------------------------------------
   TIME STEP LENGTH 1.72800E+05  2880.0      48.000      2.0000     5.47570E-03
 STRESS PERIOD TIME 1.71072E+07 2.85120E+05  4752.0      198.00     0.54209    
         TOTAL TIME 3.43872E+07 5.73120E+05  9552.0      398.00      1.0897    


end timestep


start timestep kper="2" kstp="100" mode="normal"

 UBDSV1 SAVING           STO-SS ON UNIT   1027 AT TIME STEP    100, STRESS PERIOD      2
 UBDSV1 SAVING     FLOW-JA-FACE ON UNIT   1027 AT TIME STEP    100, STRESS PERIOD      2

 WEL PACKAGE (WEL1) FLOW RATES   PERIOD      2   STEP      100
 -----------------------------------------------
   NUMBER   CELLID                    RATE      
 -----------------------------------------------
     1      (1,17,17)            -5.00000000E-05
     2      (1,33,17)            -5.00000000E-05
     3      (1,9,26)             -5.00000000E-05
     4      (1,17,35)            -5.00000000E-05
     5      (1,33,35)            -5.00000000E-05
     6      (1,26,26)            -5.00000000E-05
     7      (1,41,26)            -5.00000000E-05
     8      (1,4,39)             -5.00000000E-05
     9      (1,27,3)             -5.00000000E-05
     10     (1,46,46)            -5.00000000E-05
 -----------------------------------------------




 WEL PACKAGE (WEL2) FLOW RATES   PERIOD      2   STEP      100
 -----------------------------------------------
   NUMBER   CELLID                    RATE      
 -----------------------------------------------
     1      (1,17,26)             2.50000000E-04
     2      (1,33,26)             2.50000000E-04
 -----------------------------------------------




 HEAD WILL BE SAVED ON UNIT 1028 AT END OF TIME STEP  100, STRESS PERIOD    2


  VOLUME BUDGET FOR ENTIRE MODEL AT END OF TIME STEP  100, STRESS PERIOD   2
  ---------------------------------------------------------------------------------------------------

     CUMULATIVE VOLUME      L**3       RATES FOR THIS TIME STEP      L**3/T          PACKAGE NAME    
     ------------------                 ------------------------                     ----------------

           IN:                                      IN:
           ---                                      ---
              STO-SS =           0.0000                STO-SS =           0.0000     STORAGE                          
                 WEL =           0.0000                   WEL =           0.0000     WEL1                             
                 WEL =           0.2000                   WEL =       5.0000E-04     WEL2                             

            TOTAL IN =           0.2000              TOTAL IN =       5.0000E-04

          OUT:                                     OUT:
          ----                                     ----
              STO-SS =           0.0000                STO-SS =           0.0000     STORAGE                          
                 WEL =           0.2000                   WEL =       5.0000E-04     WEL1                             
                 WEL =           0.0000                   WEL =           0.0000     WEL2                             

           TOTAL OUT =           0.2000             TOTAL OUT =       5.0000E-04

            IN - OUT =       4.0000E-11              IN - OUT =      -1.0842E-19

 PERCENT DISCREPANCY =           0.00     PERCENT DISCREPANCY =          -0.00




         TIME SUMMARY AT END OF TIME STEP  100 IN STRESS PERIOD    2
                    SECONDS     MINUTES      HOURS       DAYS        YEARS
                    -----------------------------------------------------------
   TIME STEP LENGTH 1.72800E+05  2880.0      48.000      2.0000     5.47570E-03
 STRESS PERIOD TIME 1.72800E+07 2.88000E+05  4800.0      200.00     0.54757    
         TOTAL TIME 3.45600E+07 5.76000E+05  9600.0      400.00      1.0951    


end timestep


start timestep kper="2" kstp="101" mode="normal"

 UBDSV1 SAVING           STO-SS ON UNIT   1027 AT TIME STEP    101, STRESS PERIOD      2
 UBDSV1 SAVING     FLOW-JA-FACE ON UNIT   1027 AT TIME STEP    101, STRESS PERIOD      2

 WEL PACKAGE (WEL1) FLOW RATES   PERIOD      2   STEP      101
 -----------------------------------------------
   NUMBER   CELLID                    RATE      
 -----------------------------------------------
     1      (1,17,17)            -5.00000000E-05
     2      (1,33,17)            -5.00000000E-05
     3      (1,9,26)             -5.00000000E-05
     4      (1,17,35)            -5.00000000E-05
     5      (1,33,35)            -5.00000000E-05
     6      (1,26,26)            -5.00000000E-05
     7      (1,41,26)            -5.00000000E-05
     8      (1,4,39)             -5.00000000E-05
     9      (1,27,3)             -5.00000000E-05
     10     (1,46,46)            -5.00000000E-05
 -----------------------------------------------




 WEL PACKAGE (WEL2) FLOW RATES   PERIOD      2   STEP      101
 -----------------------------------------------
   NUMBER   CELLID                    RATE      
 -----------------------------------------------
     1      (1,17,26)             2.50000000E-04
     2      (1,33,26)             2.50000000E-04
 -----------------------------------------------




 HEAD WILL BE SAVED ON UNIT 1028 AT END OF TIME STEP  101, STRESS PERIOD    2


  VOLUME BUDGET FOR ENTIRE MODEL AT END OF TIME STEP  101, STRESS PERIOD   2
  ---------------------------------------------------------------------------------------------------

     CUMULATIVE VOLUME      L**3       RATES FOR THIS TIME STEP      L**3/T          PACKAGE NAME    
     ------------------                 ------------------------                     ----------------

           IN:                                      IN:
           ---                                      ---
              STO-SS =           0.0000                STO-SS =           0.0000     STORAGE                          
                 WEL =           0.0000                   WEL =           0.0000     WEL1                             
                 WEL =           0.2010                   WEL =       5.0000E-04     WEL2                             

            TOTAL IN =           0.2010              TOTAL IN =       5.0000E-04

          OUT:                                     OUT:
          ----                                     ----
              STO-SS =           0.0000                STO-SS =           0.0000     STORAGE                          
                 WEL =           0.2010                   WEL =       5.0000E-04     WEL1                             
                 WEL =           0.0000                   WEL =           0.0000     WEL2                             

           TOTAL OUT =           0.2010             TOTAL OUT =       5.0000E-04

            IN - OUT =       4.0000E-11              IN - OUT =      -1.0842E-19

 PERCENT DISCREPANCY =           0.00     PERCENT DISCREPANCY =          -0.00




         TIME SUMMARY AT END OF TIME STEP  101 IN STRESS PERIOD    2
                    SECONDS     MINUTES      HOURS       DAYS        YEARS
                    -----------------------------------------------------------
   TIME STEP LENGTH 1.72800E+05  2880.0      48.000      2.0000     5.47570E-03
 STRESS PERIOD TIME 1.74528E+07 2.90880E+05  4848.0      202.00     0.55305    
         TOTAL TIME 3.47328E+07 5.78880E+05  9648.0      402.00      1.1006    


end timestep


start timestep kper="2" kstp="102" mode="normal"

 UBDSV1 SAVING           STO-SS ON UNIT   1027 AT TIME STEP    102, STRESS PERIOD      2
 UBDSV1 SAVING     FLOW-JA-FACE ON UNIT   1027 AT TIME STEP    102, STRESS PERIOD      2

 WEL PACKAGE (WEL1) FLOW RATES   PERIOD      2   STEP      102
 -----------------------------------------------
   NUMBER   CELLID                    RATE      
 -----------------------------------------------
     1      (1,17,17)            -5.00000000E-05
     2      (1,33,17)            -5.00000000E-05
     3      (1,9,26)             -5.00000000E-05
     4      (1,17,35)            -5.00000000E-05
     5      (1,33,35)            -5.00000000E-05
     6      (1,26,26)            -5.00000000E-05
     7      (1,41,26)            -5.00000000E-05
     8      (1,4,39)             -5.00000000E-05
     9      (1,27,3)             -5.00000000E-05
     10     (1,46,46)            -5.00000000E-05
 -----------------------------------------------




 WEL PACKAGE (WEL2) FLOW RATES   PERIOD      2   STEP      102
 -----------------------------------------------
   NUMBER   CELLID                    RATE      
 -----------------------------------------------
     1      (1,17,26)             2.50000000E-04
     2      (1,33,26)             2.50000000E-04
 -----------------------------------------------




 HEAD WILL BE SAVED ON UNIT 1028 AT END OF TIME STEP  102, STRESS PERIOD    2


  VOLUME BUDGET FOR ENTIRE MODEL AT END OF TIME STEP  102, STRESS PERIOD   2
  ---------------------------------------------------------------------------------------------------

     CUMULATIVE VOLUME      L**3       RATES FOR THIS TIME STEP      L**3/T          PACKAGE NAME    
     ------------------                 ------------------------                     ----------------

           IN:                                      IN:
           ---                                      ---
              STO-SS =           0.0000                STO-SS =           0.0000     STORAGE                          
                 WEL =           0.0000                   WEL =           0.0000     WEL1                             
                 WEL =           0.2020                   WEL =       5.0000E-04     WEL2                             

            TOTAL IN =           0.2020              TOTAL IN =       5.0000E-04

          OUT:                                     OUT:
          ----                                     ----
              STO-SS =           0.0000                STO-SS =           0.0000     STORAGE                          
                 WEL =           0.2020                   WEL =       5.0000E-04     WEL1                             
                 WEL =           0.0000                   WEL =           0.0000     WEL2                             

           TOTAL OUT =           0.2020             TOTAL OUT =       5.0000E-04

            IN - OUT =       4.0000E-11              IN - OUT =      -1.0842E-19

 PERCENT DISCREPANCY =           0.00     PERCENT DISCREPANCY =          -0.00




         TIME SUMMARY AT END OF TIME STEP  102 IN STRESS PERIOD    2
                    SECONDS     MINUTES      HOURS       DAYS        YEARS
                    -----------------------------------------------------------
   TIME STEP LENGTH 1.72800E+05  2880.0      48.000      2.0000     5.47570E-03
 STRESS PERIOD TIME 1.76256E+07 2.93760E+05  4896.0      204.00     0.55852    
         TOTAL TIME 3.49056E+07 5.81760E+05  9696.0      404.00      1.1061    


end timestep


start timestep kper="2" kstp="103" mode="normal"

 UBDSV1 SAVING           STO-SS ON UNIT   1027 AT TIME STEP    103, STRESS PERIOD      2
 UBDSV1 SAVING     FLOW-JA-FACE ON UNIT   1027 AT TIME STEP    103, STRESS PERIOD      2

 WEL PACKAGE (WEL1) FLOW RATES   PERIOD      2   STEP      103
 -----------------------------------------------
   NUMBER   CELLID                    RATE      
 -----------------------------------------------
     1      (1,17,17)            -5.00000000E-05
     2      (1,33,17)            -5.00000000E-05
     3      (1,9,26)             -5.00000000E-05
     4      (1,17,35)            -5.00000000E-05
     5      (1,33,35)            -5.00000000E-05
     6      (1,26,26)            -5.00000000E-05
     7      (1,41,26)            -5.00000000E-05
     8      (1,4,39)             -5.00000000E-05
     9      (1,27,3)             -5.00000000E-05
     10     (1,46,46)            -5.00000000E-05
 -----------------------------------------------




 WEL PACKAGE (WEL2) FLOW RATES   PERIOD      2   STEP      103
 -----------------------------------------------
   NUMBER   CELLID                    RATE      
 -----------------------------------------------
     1      (1,17,26)             2.50000000E-04
     2      (1,33,26)             2.50000000E-04
 -----------------------------------------------




 HEAD WILL BE SAVED ON UNIT 1028 AT END OF TIME STEP  103, STRESS PERIOD    2


  VOLUME BUDGET FOR ENTIRE MODEL AT END OF TIME STEP  103, STRESS PERIOD   2
  ---------------------------------------------------------------------------------------------------

     CUMULATIVE VOLUME      L**3       RATES FOR THIS TIME STEP      L**3/T          PACKAGE NAME    
     ------------------                 ------------------------                     ----------------

           IN:                                      IN:
           ---                                      ---
              STO-SS =           0.0000                STO-SS =           0.0000     STORAGE                          
                 WEL =           0.0000                   WEL =           0.0000     WEL1                             
                 WEL =           0.2030                   WEL =       5.0000E-04     WEL2                             

            TOTAL IN =           0.2030              TOTAL IN =       5.0000E-04

          OUT:                                     OUT:
          ----                                     ----
              STO-SS =           0.0000                STO-SS =           0.0000     STORAGE                          
                 WEL =           0.2030                   WEL =       5.0000E-04     WEL1                             
                 WEL =           0.0000                   WEL =           0.0000     WEL2                             

           TOTAL OUT =           0.2030             TOTAL OUT =       5.0000E-04

            IN - OUT =       4.0000E-11              IN - OUT =      -1.0842E-19

 PERCENT DISCREPANCY =           0.00     PERCENT DISCREPANCY =          -0.00




         TIME SUMMARY AT END OF TIME STEP  103 IN STRESS PERIOD    2
                    SECONDS     MINUTES      HOURS       DAYS        YEARS
                    -----------------------------------------------------------
   TIME STEP LENGTH 1.72800E+05  2880.0      48.000      2.0000     5.47570E-03
 STRESS PERIOD TIME 1.77984E+07 2.96640E+05  4944.0      206.00     0.56400    
         TOTAL TIME 3.50784E+07 5.84640E+05  9744.0      406.00      1.1116    


end timestep


start timestep kper="2" kstp="104" mode="normal"

 UBDSV1 SAVING           STO-SS ON UNIT   1027 AT TIME STEP    104, STRESS PERIOD      2
 UBDSV1 SAVING     FLOW-JA-FACE ON UNIT   1027 AT TIME STEP    104, STRESS PERIOD      2

 WEL PACKAGE (WEL1) FLOW RATES   PERIOD      2   STEP      104
 -----------------------------------------------
   NUMBER   CELLID                    RATE      
 -----------------------------------------------
     1      (1,17,17)            -5.00000000E-05
     2      (1,33,17)            -5.00000000E-05
     3      (1,9,26)             -5.00000000E-05
     4      (1,17,35)            -5.00000000E-05
     5      (1,33,35)            -5.00000000E-05
     6      (1,26,26)            -5.00000000E-05
     7      (1,41,26)            -5.00000000E-05
     8      (1,4,39)             -5.00000000E-05
     9      (1,27,3)             -5.00000000E-05
     10     (1,46,46)            -5.00000000E-05
 -----------------------------------------------




 WEL PACKAGE (WEL2) FLOW RATES   PERIOD      2   STEP      104
 -----------------------------------------------
   NUMBER   CELLID                    RATE      
 -----------------------------------------------
     1      (1,17,26)             2.50000000E-04
     2      (1,33,26)             2.50000000E-04
 -----------------------------------------------




 HEAD WILL BE SAVED ON UNIT 1028 AT END OF TIME STEP  104, STRESS PERIOD    2


  VOLUME BUDGET FOR ENTIRE MODEL AT END OF TIME STEP  104, STRESS PERIOD   2
  ---------------------------------------------------------------------------------------------------

     CUMULATIVE VOLUME      L**3       RATES FOR THIS TIME STEP      L**3/T          PACKAGE NAME    
     ------------------                 ------------------------                     ----------------

           IN:                                      IN:
           ---                                      ---
              STO-SS =           0.0000                STO-SS =           0.0000     STORAGE                          
                 WEL =           0.0000                   WEL =           0.0000     WEL1                             
                 WEL =           0.2040                   WEL =       5.0000E-04     WEL2                             

            TOTAL IN =           0.2040              TOTAL IN =       5.0000E-04

          OUT:                                     OUT:
          ----                                     ----
              STO-SS =           0.0000                STO-SS =           0.0000     STORAGE                          
                 WEL =           0.2040                   WEL =       5.0000E-04     WEL1                             
                 WEL =           0.0000                   WEL =           0.0000     WEL2                             

           TOTAL OUT =           0.2040             TOTAL OUT =       5.0000E-04

            IN - OUT =       4.0000E-11              IN - OUT =      -1.0842E-19

 PERCENT DISCREPANCY =           0.00     PERCENT DISCREPANCY =          -0.00




         TIME SUMMARY AT END OF TIME STEP  104 IN STRESS PERIOD    2
                    SECONDS     MINUTES      HOURS       DAYS        YEARS
                    -----------------------------------------------------------
   TIME STEP LENGTH 1.72800E+05  2880.0      48.000      2.0000     5.47570E-03
 STRESS PERIOD TIME 1.79712E+07 2.99520E+05  4992.0      208.00     0.56947    
         TOTAL TIME 3.52512E+07 5.87520E+05  9792.0      408.00      1.1170    


end timestep


start timestep kper="2" kstp="105" mode="normal"

 UBDSV1 SAVING           STO-SS ON UNIT   1027 AT TIME STEP    105, STRESS PERIOD      2
 UBDSV1 SAVING     FLOW-JA-FACE ON UNIT   1027 AT TIME STEP    105, STRESS PERIOD      2

 WEL PACKAGE (WEL1) FLOW RATES   PERIOD      2   STEP      105
 -----------------------------------------------
   NUMBER   CELLID                    RATE      
 -----------------------------------------------
     1      (1,17,17)            -5.00000000E-05
     2      (1,33,17)            -5.00000000E-05
     3      (1,9,26)             -5.00000000E-05
     4      (1,17,35)            -5.00000000E-05
     5      (1,33,35)            -5.00000000E-05
     6      (1,26,26)            -5.00000000E-05
     7      (1,41,26)            -5.00000000E-05
     8      (1,4,39)             -5.00000000E-05
     9      (1,27,3)             -5.00000000E-05
     10     (1,46,46)            -5.00000000E-05
 -----------------------------------------------




 WEL PACKAGE (WEL2) FLOW RATES   PERIOD      2   STEP      105
 -----------------------------------------------
   NUMBER   CELLID                    RATE      
 -----------------------------------------------
     1      (1,17,26)             2.50000000E-04
     2      (1,33,26)             2.50000000E-04
 -----------------------------------------------




 HEAD WILL BE SAVED ON UNIT 1028 AT END OF TIME STEP  105, STRESS PERIOD    2


  VOLUME BUDGET FOR ENTIRE MODEL AT END OF TIME STEP  105, STRESS PERIOD   2
  ---------------------------------------------------------------------------------------------------

     CUMULATIVE VOLUME      L**3       RATES FOR THIS TIME STEP      L**3/T          PACKAGE NAME    
     ------------------                 ------------------------                     ----------------

           IN:                                      IN:
           ---                                      ---
              STO-SS =           0.0000                STO-SS =           0.0000     STORAGE                          
                 WEL =           0.0000                   WEL =           0.0000     WEL1                             
                 WEL =           0.2050                   WEL =       5.0000E-04     WEL2                             

            TOTAL IN =           0.2050              TOTAL IN =       5.0000E-04

          OUT:                                     OUT:
          ----                                     ----
              STO-SS =           0.0000                STO-SS =           0.0000     STORAGE                          
                 WEL =           0.2050                   WEL =       5.0000E-04     WEL1                             
                 WEL =           0.0000                   WEL =           0.0000     WEL2                             

           TOTAL OUT =           0.2050             TOTAL OUT =       5.0000E-04

            IN - OUT =       4.0000E-11              IN - OUT =      -1.0842E-19

 PERCENT DISCREPANCY =           0.00     PERCENT DISCREPANCY =          -0.00




         TIME SUMMARY AT END OF TIME STEP  105 IN STRESS PERIOD    2
                    SECONDS     MINUTES      HOURS       DAYS        YEARS
                    -----------------------------------------------------------
   TIME STEP LENGTH 1.72800E+05  2880.0      48.000      2.0000     5.47570E-03
 STRESS PERIOD TIME 1.81440E+07 3.02400E+05  5040.0      210.00     0.57495    
         TOTAL TIME 3.54240E+07 5.90400E+05  9840.0      410.00      1.1225    


end timestep


start timestep kper="2" kstp="106" mode="normal"

 UBDSV1 SAVING           STO-SS ON UNIT   1027 AT TIME STEP    106, STRESS PERIOD      2
 UBDSV1 SAVING     FLOW-JA-FACE ON UNIT   1027 AT TIME STEP    106, STRESS PERIOD      2

 WEL PACKAGE (WEL1) FLOW RATES   PERIOD      2   STEP      106
 -----------------------------------------------
   NUMBER   CELLID                    RATE      
 -----------------------------------------------
     1      (1,17,17)            -5.00000000E-05
     2      (1,33,17)            -5.00000000E-05
     3      (1,9,26)             -5.00000000E-05
     4      (1,17,35)            -5.00000000E-05
     5      (1,33,35)            -5.00000000E-05
     6      (1,26,26)            -5.00000000E-05
     7      (1,41,26)            -5.00000000E-05
     8      (1,4,39)             -5.00000000E-05
     9      (1,27,3)             -5.00000000E-05
     10     (1,46,46)            -5.00000000E-05
 -----------------------------------------------




 WEL PACKAGE (WEL2) FLOW RATES   PERIOD      2   STEP      106
 -----------------------------------------------
   NUMBER   CELLID                    RATE      
 -----------------------------------------------
     1      (1,17,26)             2.50000000E-04
     2      (1,33,26)             2.50000000E-04
 -----------------------------------------------




 HEAD WILL BE SAVED ON UNIT 1028 AT END OF TIME STEP  106, STRESS PERIOD    2


  VOLUME BUDGET FOR ENTIRE MODEL AT END OF TIME STEP  106, STRESS PERIOD   2
  ---------------------------------------------------------------------------------------------------

     CUMULATIVE VOLUME      L**3       RATES FOR THIS TIME STEP      L**3/T          PACKAGE NAME    
     ------------------                 ------------------------                     ----------------

           IN:                                      IN:
           ---                                      ---
              STO-SS =           0.0000                STO-SS =           0.0000     STORAGE                          
                 WEL =           0.0000                   WEL =           0.0000     WEL1                             
                 WEL =           0.2060                   WEL =       5.0000E-04     WEL2                             

            TOTAL IN =           0.2060              TOTAL IN =       5.0000E-04

          OUT:                                     OUT:
          ----                                     ----
              STO-SS =           0.0000                STO-SS =           0.0000     STORAGE                          
                 WEL =           0.2060                   WEL =       5.0000E-04     WEL1                             
                 WEL =           0.0000                   WEL =           0.0000     WEL2                             

           TOTAL OUT =           0.2060             TOTAL OUT =       5.0000E-04

            IN - OUT =       4.0000E-11              IN - OUT =      -1.0842E-19

 PERCENT DISCREPANCY =           0.00     PERCENT DISCREPANCY =          -0.00




         TIME SUMMARY AT END OF TIME STEP  106 IN STRESS PERIOD    2
                    SECONDS     MINUTES      HOURS       DAYS        YEARS
                    -----------------------------------------------------------
   TIME STEP LENGTH 1.72800E+05  2880.0      48.000      2.0000     5.47570E-03
 STRESS PERIOD TIME 1.83168E+07 3.05280E+05  5088.0      212.00     0.58042    
         TOTAL TIME 3.55968E+07 5.93280E+05  9888.0      412.00      1.1280    


end timestep


start timestep kper="2" kstp="107" mode="normal"

 UBDSV1 SAVING           STO-SS ON UNIT   1027 AT TIME STEP    107, STRESS PERIOD      2
 UBDSV1 SAVING     FLOW-JA-FACE ON UNIT   1027 AT TIME STEP    107, STRESS PERIOD      2

 WEL PACKAGE (WEL1) FLOW RATES   PERIOD      2   STEP      107
 -----------------------------------------------
   NUMBER   CELLID                    RATE      
 -----------------------------------------------
     1      (1,17,17)            -5.00000000E-05
     2      (1,33,17)            -5.00000000E-05
     3      (1,9,26)             -5.00000000E-05
     4      (1,17,35)            -5.00000000E-05
     5      (1,33,35)            -5.00000000E-05
     6      (1,26,26)            -5.00000000E-05
     7      (1,41,26)            -5.00000000E-05
     8      (1,4,39)             -5.00000000E-05
     9      (1,27,3)             -5.00000000E-05
     10     (1,46,46)            -5.00000000E-05
 -----------------------------------------------




 WEL PACKAGE (WEL2) FLOW RATES   PERIOD      2   STEP      107
 -----------------------------------------------
   NUMBER   CELLID                    RATE      
 -----------------------------------------------
     1      (1,17,26)             2.50000000E-04
     2      (1,33,26)             2.50000000E-04
 -----------------------------------------------




 HEAD WILL BE SAVED ON UNIT 1028 AT END OF TIME STEP  107, STRESS PERIOD    2


  VOLUME BUDGET FOR ENTIRE MODEL AT END OF TIME STEP  107, STRESS PERIOD   2
  ---------------------------------------------------------------------------------------------------

     CUMULATIVE VOLUME      L**3       RATES FOR THIS TIME STEP      L**3/T          PACKAGE NAME    
     ------------------                 ------------------------                     ----------------

           IN:                                      IN:
           ---                                      ---
              STO-SS =           0.0000                STO-SS =           0.0000     STORAGE                          
                 WEL =           0.0000                   WEL =           0.0000     WEL1                             
                 WEL =           0.2070                   WEL =       5.0000E-04     WEL2                             

            TOTAL IN =           0.2070              TOTAL IN =       5.0000E-04

          OUT:                                     OUT:
          ----                                     ----
              STO-SS =           0.0000                STO-SS =           0.0000     STORAGE                          
                 WEL =           0.2070                   WEL =       5.0000E-04     WEL1                             
                 WEL =           0.0000                   WEL =           0.0000     WEL2                             

           TOTAL OUT =           0.2070             TOTAL OUT =       5.0000E-04

            IN - OUT =       4.0000E-11              IN - OUT =      -1.0842E-19

 PERCENT DISCREPANCY =           0.00     PERCENT DISCREPANCY =          -0.00




         TIME SUMMARY AT END OF TIME STEP  107 IN STRESS PERIOD    2
                    SECONDS     MINUTES      HOURS       DAYS        YEARS
                    -----------------------------------------------------------
   TIME STEP LENGTH 1.72800E+05  2880.0      48.000      2.0000     5.47570E-03
 STRESS PERIOD TIME 1.84896E+07 3.08160E+05  5136.0      214.00     0.58590    
         TOTAL TIME 3.57696E+07 5.96160E+05  9936.0      414.00      1.1335    


end timestep


start timestep kper="2" kstp="108" mode="normal"

 UBDSV1 SAVING           STO-SS ON UNIT   1027 AT TIME STEP    108, STRESS PERIOD      2
 UBDSV1 SAVING     FLOW-JA-FACE ON UNIT   1027 AT TIME STEP    108, STRESS PERIOD      2

 WEL PACKAGE (WEL1) FLOW RATES   PERIOD      2   STEP      108
 -----------------------------------------------
   NUMBER   CELLID                    RATE      
 -----------------------------------------------
     1      (1,17,17)            -5.00000000E-05
     2      (1,33,17)            -5.00000000E-05
     3      (1,9,26)             -5.00000000E-05
     4      (1,17,35)            -5.00000000E-05
     5      (1,33,35)            -5.00000000E-05
     6      (1,26,26)            -5.00000000E-05
     7      (1,41,26)            -5.00000000E-05
     8      (1,4,39)             -5.00000000E-05
     9      (1,27,3)             -5.00000000E-05
     10     (1,46,46)            -5.00000000E-05
 -----------------------------------------------




 WEL PACKAGE (WEL2) FLOW RATES   PERIOD      2   STEP      108
 -----------------------------------------------
   NUMBER   CELLID                    RATE      
 -----------------------------------------------
     1      (1,17,26)             2.50000000E-04
     2      (1,33,26)             2.50000000E-04
 -----------------------------------------------




 HEAD WILL BE SAVED ON UNIT 1028 AT END OF TIME STEP  108, STRESS PERIOD    2


  VOLUME BUDGET FOR ENTIRE MODEL AT END OF TIME STEP  108, STRESS PERIOD   2
  ---------------------------------------------------------------------------------------------------

     CUMULATIVE VOLUME      L**3       RATES FOR THIS TIME STEP      L**3/T          PACKAGE NAME    
     ------------------                 ------------------------                     ----------------

           IN:                                      IN:
           ---                                      ---
              STO-SS =           0.0000                STO-SS =           0.0000     STORAGE                          
                 WEL =           0.0000                   WEL =           0.0000     WEL1                             
                 WEL =           0.2080                   WEL =       5.0000E-04     WEL2                             

            TOTAL IN =           0.2080              TOTAL IN =       5.0000E-04

          OUT:                                     OUT:
          ----                                     ----
              STO-SS =           0.0000                STO-SS =           0.0000     STORAGE                          
                 WEL =           0.2080                   WEL =       5.0000E-04     WEL1                             
                 WEL =           0.0000                   WEL =           0.0000     WEL2                             

           TOTAL OUT =           0.2080             TOTAL OUT =       5.0000E-04

            IN - OUT =       4.0000E-11              IN - OUT =      -1.0842E-19

 PERCENT DISCREPANCY =           0.00     PERCENT DISCREPANCY =          -0.00




         TIME SUMMARY AT END OF TIME STEP  108 IN STRESS PERIOD    2
                    SECONDS     MINUTES      HOURS       DAYS        YEARS
                    -----------------------------------------------------------
   TIME STEP LENGTH 1.72800E+05  2880.0      48.000      2.0000     5.47570E-03
 STRESS PERIOD TIME 1.86624E+07 3.11040E+05  5184.0      216.00     0.59138    
         TOTAL TIME 3.59424E+07 5.99040E+05  9984.0      416.00      1.1389    


end timestep


start timestep kper="2" kstp="109" mode="normal"

 UBDSV1 SAVING           STO-SS ON UNIT   1027 AT TIME STEP    109, STRESS PERIOD      2
 UBDSV1 SAVING     FLOW-JA-FACE ON UNIT   1027 AT TIME STEP    109, STRESS PERIOD      2

 WEL PACKAGE (WEL1) FLOW RATES   PERIOD      2   STEP      109
 -----------------------------------------------
   NUMBER   CELLID                    RATE      
 -----------------------------------------------
     1      (1,17,17)            -5.00000000E-05
     2      (1,33,17)            -5.00000000E-05
     3      (1,9,26)             -5.00000000E-05
     4      (1,17,35)            -5.00000000E-05
     5      (1,33,35)            -5.00000000E-05
     6      (1,26,26)            -5.00000000E-05
     7      (1,41,26)            -5.00000000E-05
     8      (1,4,39)             -5.00000000E-05
     9      (1,27,3)             -5.00000000E-05
     10     (1,46,46)            -5.00000000E-05
 -----------------------------------------------




 WEL PACKAGE (WEL2) FLOW RATES   PERIOD      2   STEP      109
 -----------------------------------------------
   NUMBER   CELLID                    RATE      
 -----------------------------------------------
     1      (1,17,26)             2.50000000E-04
     2      (1,33,26)             2.50000000E-04
 -----------------------------------------------




 HEAD WILL BE SAVED ON UNIT 1028 AT END OF TIME STEP  109, STRESS PERIOD    2


  VOLUME BUDGET FOR ENTIRE MODEL AT END OF TIME STEP  109, STRESS PERIOD   2
  ---------------------------------------------------------------------------------------------------

     CUMULATIVE VOLUME      L**3       RATES FOR THIS TIME STEP      L**3/T          PACKAGE NAME    
     ------------------                 ------------------------                     ----------------

           IN:                                      IN:
           ---                                      ---
              STO-SS =           0.0000                STO-SS =           0.0000     STORAGE                          
                 WEL =           0.0000                   WEL =           0.0000     WEL1                             
                 WEL =           0.2090                   WEL =       5.0000E-04     WEL2                             

            TOTAL IN =           0.2090              TOTAL IN =       5.0000E-04

          OUT:                                     OUT:
          ----                                     ----
              STO-SS =           0.0000                STO-SS =           0.0000     STORAGE                          
                 WEL =           0.2090                   WEL =       5.0000E-04     WEL1                             
                 WEL =           0.0000                   WEL =           0.0000     WEL2                             

           TOTAL OUT =           0.2090             TOTAL OUT =       5.0000E-04

            IN - OUT =       4.0000E-11              IN - OUT =      -1.0842E-19

 PERCENT DISCREPANCY =           0.00     PERCENT DISCREPANCY =          -0.00




         TIME SUMMARY AT END OF TIME STEP  109 IN STRESS PERIOD    2
                    SECONDS     MINUTES      HOURS       DAYS        YEARS
                    -----------------------------------------------------------
   TIME STEP LENGTH 1.72800E+05  2880.0      48.000      2.0000     5.47570E-03
 STRESS PERIOD TIME 1.88352E+07 3.13920E+05  5232.0      218.00     0.59685    
         TOTAL TIME 3.61152E+07 6.01920E+05  10032.      418.00      1.1444    


end timestep


start timestep kper="2" kstp="110" mode="normal"

 UBDSV1 SAVING           STO-SS ON UNIT   1027 AT TIME STEP    110, STRESS PERIOD      2
 UBDSV1 SAVING     FLOW-JA-FACE ON UNIT   1027 AT TIME STEP    110, STRESS PERIOD      2

 WEL PACKAGE (WEL1) FLOW RATES   PERIOD      2   STEP      110
 -----------------------------------------------
   NUMBER   CELLID                    RATE      
 -----------------------------------------------
     1      (1,17,17)            -5.00000000E-05
     2      (1,33,17)            -5.00000000E-05
     3      (1,9,26)             -5.00000000E-05
     4      (1,17,35)            -5.00000000E-05
     5      (1,33,35)            -5.00000000E-05
     6      (1,26,26)            -5.00000000E-05
     7      (1,41,26)            -5.00000000E-05
     8      (1,4,39)             -5.00000000E-05
     9      (1,27,3)             -5.00000000E-05
     10     (1,46,46)            -5.00000000E-05
 -----------------------------------------------




 WEL PACKAGE (WEL2) FLOW RATES   PERIOD      2   STEP      110
 -----------------------------------------------
   NUMBER   CELLID                    RATE      
 -----------------------------------------------
     1      (1,17,26)             2.50000000E-04
     2      (1,33,26)             2.50000000E-04
 -----------------------------------------------




 HEAD WILL BE SAVED ON UNIT 1028 AT END OF TIME STEP  110, STRESS PERIOD    2


  VOLUME BUDGET FOR ENTIRE MODEL AT END OF TIME STEP  110, STRESS PERIOD   2
  ---------------------------------------------------------------------------------------------------

     CUMULATIVE VOLUME      L**3       RATES FOR THIS TIME STEP      L**3/T          PACKAGE NAME    
     ------------------                 ------------------------                     ----------------

           IN:                                      IN:
           ---                                      ---
              STO-SS =           0.0000                STO-SS =           0.0000     STORAGE                          
                 WEL =           0.0000                   WEL =           0.0000     WEL1                             
                 WEL =           0.2100                   WEL =       5.0000E-04     WEL2                             

            TOTAL IN =           0.2100              TOTAL IN =       5.0000E-04

          OUT:                                     OUT:
          ----                                     ----
              STO-SS =           0.0000                STO-SS =           0.0000     STORAGE                          
                 WEL =           0.2100                   WEL =       5.0000E-04     WEL1                             
                 WEL =           0.0000                   WEL =           0.0000     WEL2                             

           TOTAL OUT =           0.2100             TOTAL OUT =       5.0000E-04

            IN - OUT =       4.0000E-11              IN - OUT =      -1.0842E-19

 PERCENT DISCREPANCY =           0.00     PERCENT DISCREPANCY =          -0.00




         TIME SUMMARY AT END OF TIME STEP  110 IN STRESS PERIOD    2
                    SECONDS     MINUTES      HOURS       DAYS        YEARS
                    -----------------------------------------------------------
   TIME STEP LENGTH 1.72800E+05  2880.0      48.000      2.0000     5.47570E-03
 STRESS PERIOD TIME 1.90080E+07 3.16800E+05  5280.0      220.00     0.60233    
         TOTAL TIME 3.62880E+07 6.04800E+05  10080.      420.00      1.1499    


end timestep


start timestep kper="2" kstp="111" mode="normal"

 UBDSV1 SAVING           STO-SS ON UNIT   1027 AT TIME STEP    111, STRESS PERIOD      2
 UBDSV1 SAVING     FLOW-JA-FACE ON UNIT   1027 AT TIME STEP    111, STRESS PERIOD      2

 WEL PACKAGE (WEL1) FLOW RATES   PERIOD      2   STEP      111
 -----------------------------------------------
   NUMBER   CELLID                    RATE      
 -----------------------------------------------
     1      (1,17,17)            -5.00000000E-05
     2      (1,33,17)            -5.00000000E-05
     3      (1,9,26)             -5.00000000E-05
     4      (1,17,35)            -5.00000000E-05
     5      (1,33,35)            -5.00000000E-05
     6      (1,26,26)            -5.00000000E-05
     7      (1,41,26)            -5.00000000E-05
     8      (1,4,39)             -5.00000000E-05
     9      (1,27,3)             -5.00000000E-05
     10     (1,46,46)            -5.00000000E-05
 -----------------------------------------------




 WEL PACKAGE (WEL2) FLOW RATES   PERIOD      2   STEP      111
 -----------------------------------------------
   NUMBER   CELLID                    RATE      
 -----------------------------------------------
     1      (1,17,26)             2.50000000E-04
     2      (1,33,26)             2.50000000E-04
 -----------------------------------------------




 HEAD WILL BE SAVED ON UNIT 1028 AT END OF TIME STEP  111, STRESS PERIOD    2


  VOLUME BUDGET FOR ENTIRE MODEL AT END OF TIME STEP  111, STRESS PERIOD   2
  ---------------------------------------------------------------------------------------------------

     CUMULATIVE VOLUME      L**3       RATES FOR THIS TIME STEP      L**3/T          PACKAGE NAME    
     ------------------                 ------------------------                     ----------------

           IN:                                      IN:
           ---                                      ---
              STO-SS =           0.0000                STO-SS =           0.0000     STORAGE                          
                 WEL =           0.0000                   WEL =           0.0000     WEL1                             
                 WEL =           0.2110                   WEL =       5.0000E-04     WEL2                             

            TOTAL IN =           0.2110              TOTAL IN =       5.0000E-04

          OUT:                                     OUT:
          ----                                     ----
              STO-SS =           0.0000                STO-SS =           0.0000     STORAGE                          
                 WEL =           0.2110                   WEL =       5.0000E-04     WEL1                             
                 WEL =           0.0000                   WEL =           0.0000     WEL2                             

           TOTAL OUT =           0.2110             TOTAL OUT =       5.0000E-04

            IN - OUT =       4.0000E-11              IN - OUT =      -1.0842E-19

 PERCENT DISCREPANCY =           0.00     PERCENT DISCREPANCY =          -0.00




         TIME SUMMARY AT END OF TIME STEP  111 IN STRESS PERIOD    2
                    SECONDS     MINUTES      HOURS       DAYS        YEARS
                    -----------------------------------------------------------
   TIME STEP LENGTH 1.72800E+05  2880.0      48.000      2.0000     5.47570E-03
 STRESS PERIOD TIME 1.91808E+07 3.19680E+05  5328.0      222.00     0.60780    
         TOTAL TIME 3.64608E+07 6.07680E+05  10128.      422.00      1.1554    


end timestep


start timestep kper="2" kstp="112" mode="normal"

 UBDSV1 SAVING           STO-SS ON UNIT   1027 AT TIME STEP    112, STRESS PERIOD      2
 UBDSV1 SAVING     FLOW-JA-FACE ON UNIT   1027 AT TIME STEP    112, STRESS PERIOD      2

 WEL PACKAGE (WEL1) FLOW RATES   PERIOD      2   STEP      112
 -----------------------------------------------
   NUMBER   CELLID                    RATE      
 -----------------------------------------------
     1      (1,17,17)            -5.00000000E-05
     2      (1,33,17)            -5.00000000E-05
     3      (1,9,26)             -5.00000000E-05
     4      (1,17,35)            -5.00000000E-05
     5      (1,33,35)            -5.00000000E-05
     6      (1,26,26)            -5.00000000E-05
     7      (1,41,26)            -5.00000000E-05
     8      (1,4,39)             -5.00000000E-05
     9      (1,27,3)             -5.00000000E-05
     10     (1,46,46)            -5.00000000E-05
 -----------------------------------------------




 WEL PACKAGE (WEL2) FLOW RATES   PERIOD      2   STEP      112
 -----------------------------------------------
   NUMBER   CELLID                    RATE      
 -----------------------------------------------
     1      (1,17,26)             2.50000000E-04
     2      (1,33,26)             2.50000000E-04
 -----------------------------------------------




 HEAD WILL BE SAVED ON UNIT 1028 AT END OF TIME STEP  112, STRESS PERIOD    2


  VOLUME BUDGET FOR ENTIRE MODEL AT END OF TIME STEP  112, STRESS PERIOD   2
  ---------------------------------------------------------------------------------------------------

     CUMULATIVE VOLUME      L**3       RATES FOR THIS TIME STEP      L**3/T          PACKAGE NAME    
     ------------------                 ------------------------                     ----------------

           IN:                                      IN:
           ---                                      ---
              STO-SS =           0.0000                STO-SS =           0.0000     STORAGE                          
                 WEL =           0.0000                   WEL =           0.0000     WEL1                             
                 WEL =           0.2120                   WEL =       5.0000E-04     WEL2                             

            TOTAL IN =           0.2120              TOTAL IN =       5.0000E-04

          OUT:                                     OUT:
          ----                                     ----
              STO-SS =           0.0000                STO-SS =           0.0000     STORAGE                          
                 WEL =           0.2120                   WEL =       5.0000E-04     WEL1                             
                 WEL =           0.0000                   WEL =           0.0000     WEL2                             

           TOTAL OUT =           0.2120             TOTAL OUT =       5.0000E-04

            IN - OUT =       4.0000E-11              IN - OUT =      -1.0842E-19

 PERCENT DISCREPANCY =           0.00     PERCENT DISCREPANCY =          -0.00




         TIME SUMMARY AT END OF TIME STEP  112 IN STRESS PERIOD    2
                    SECONDS     MINUTES      HOURS       DAYS        YEARS
                    -----------------------------------------------------------
   TIME STEP LENGTH 1.72800E+05  2880.0      48.000      2.0000     5.47570E-03
 STRESS PERIOD TIME 1.93536E+07 3.22560E+05  5376.0      224.00     0.61328    
         TOTAL TIME 3.66336E+07 6.10560E+05  10176.      424.00      1.1608    


end timestep


start timestep kper="2" kstp="113" mode="normal"

 UBDSV1 SAVING           STO-SS ON UNIT   1027 AT TIME STEP    113, STRESS PERIOD      2
 UBDSV1 SAVING     FLOW-JA-FACE ON UNIT   1027 AT TIME STEP    113, STRESS PERIOD      2

 WEL PACKAGE (WEL1) FLOW RATES   PERIOD      2   STEP      113
 -----------------------------------------------
   NUMBER   CELLID                    RATE      
 -----------------------------------------------
     1      (1,17,17)            -5.00000000E-05
     2      (1,33,17)            -5.00000000E-05
     3      (1,9,26)             -5.00000000E-05
     4      (1,17,35)            -5.00000000E-05
     5      (1,33,35)            -5.00000000E-05
     6      (1,26,26)            -5.00000000E-05
     7      (1,41,26)            -5.00000000E-05
     8      (1,4,39)             -5.00000000E-05
     9      (1,27,3)             -5.00000000E-05
     10     (1,46,46)            -5.00000000E-05
 -----------------------------------------------




 WEL PACKAGE (WEL2) FLOW RATES   PERIOD      2   STEP      113
 -----------------------------------------------
   NUMBER   CELLID                    RATE      
 -----------------------------------------------
     1      (1,17,26)             2.50000000E-04
     2      (1,33,26)             2.50000000E-04
 -----------------------------------------------




 HEAD WILL BE SAVED ON UNIT 1028 AT END OF TIME STEP  113, STRESS PERIOD    2


  VOLUME BUDGET FOR ENTIRE MODEL AT END OF TIME STEP  113, STRESS PERIOD   2
  ---------------------------------------------------------------------------------------------------

     CUMULATIVE VOLUME      L**3       RATES FOR THIS TIME STEP      L**3/T          PACKAGE NAME    
     ------------------                 ------------------------                     ----------------

           IN:                                      IN:
           ---                                      ---
              STO-SS =           0.0000                STO-SS =           0.0000     STORAGE                          
                 WEL =           0.0000                   WEL =           0.0000     WEL1                             
                 WEL =           0.2130                   WEL =       5.0000E-04     WEL2                             

            TOTAL IN =           0.2130              TOTAL IN =       5.0000E-04

          OUT:                                     OUT:
          ----                                     ----
              STO-SS =           0.0000                STO-SS =           0.0000     STORAGE                          
                 WEL =           0.2130                   WEL =       5.0000E-04     WEL1                             
                 WEL =           0.0000                   WEL =           0.0000     WEL2                             

           TOTAL OUT =           0.2130             TOTAL OUT =       5.0000E-04

            IN - OUT =       4.0000E-11              IN - OUT =      -1.0842E-19

 PERCENT DISCREPANCY =           0.00     PERCENT DISCREPANCY =          -0.00




         TIME SUMMARY AT END OF TIME STEP  113 IN STRESS PERIOD    2
                    SECONDS     MINUTES      HOURS       DAYS        YEARS
                    -----------------------------------------------------------
   TIME STEP LENGTH 1.72800E+05  2880.0      48.000      2.0000     5.47570E-03
 STRESS PERIOD TIME 1.95264E+07 3.25440E+05  5424.0      226.00     0.61875    
         TOTAL TIME 3.68064E+07 6.13440E+05  10224.      426.00      1.1663    


end timestep


start timestep kper="2" kstp="114" mode="normal"

 UBDSV1 SAVING           STO-SS ON UNIT   1027 AT TIME STEP    114, STRESS PERIOD      2
 UBDSV1 SAVING     FLOW-JA-FACE ON UNIT   1027 AT TIME STEP    114, STRESS PERIOD      2

 WEL PACKAGE (WEL1) FLOW RATES   PERIOD      2   STEP      114
 -----------------------------------------------
   NUMBER   CELLID                    RATE      
 -----------------------------------------------
     1      (1,17,17)            -5.00000000E-05
     2      (1,33,17)            -5.00000000E-05
     3      (1,9,26)             -5.00000000E-05
     4      (1,17,35)            -5.00000000E-05
     5      (1,33,35)            -5.00000000E-05
     6      (1,26,26)            -5.00000000E-05
     7      (1,41,26)            -5.00000000E-05
     8      (1,4,39)             -5.00000000E-05
     9      (1,27,3)             -5.00000000E-05
     10     (1,46,46)            -5.00000000E-05
 -----------------------------------------------




 WEL PACKAGE (WEL2) FLOW RATES   PERIOD      2   STEP      114
 -----------------------------------------------
   NUMBER   CELLID                    RATE      
 -----------------------------------------------
     1      (1,17,26)             2.50000000E-04
     2      (1,33,26)             2.50000000E-04
 -----------------------------------------------




 HEAD WILL BE SAVED ON UNIT 1028 AT END OF TIME STEP  114, STRESS PERIOD    2


  VOLUME BUDGET FOR ENTIRE MODEL AT END OF TIME STEP  114, STRESS PERIOD   2
  ---------------------------------------------------------------------------------------------------

     CUMULATIVE VOLUME      L**3       RATES FOR THIS TIME STEP      L**3/T          PACKAGE NAME    
     ------------------                 ------------------------                     ----------------

           IN:                                      IN:
           ---                                      ---
              STO-SS =           0.0000                STO-SS =           0.0000     STORAGE                          
                 WEL =           0.0000                   WEL =           0.0000     WEL1                             
                 WEL =           0.2140                   WEL =       5.0000E-04     WEL2                             

            TOTAL IN =           0.2140              TOTAL IN =       5.0000E-04

          OUT:                                     OUT:
          ----                                     ----
              STO-SS =           0.0000                STO-SS =           0.0000     STORAGE                          
                 WEL =           0.2140                   WEL =       5.0000E-04     WEL1                             
                 WEL =           0.0000                   WEL =           0.0000     WEL2                             

           TOTAL OUT =           0.2140             TOTAL OUT =       5.0000E-04

            IN - OUT =       4.0000E-11              IN - OUT =      -1.0842E-19

 PERCENT DISCREPANCY =           0.00     PERCENT DISCREPANCY =          -0.00




         TIME SUMMARY AT END OF TIME STEP  114 IN STRESS PERIOD    2
                    SECONDS     MINUTES      HOURS       DAYS        YEARS
                    -----------------------------------------------------------
   TIME STEP LENGTH 1.72800E+05  2880.0      48.000      2.0000     5.47570E-03
 STRESS PERIOD TIME 1.96992E+07 3.28320E+05  5472.0      228.00     0.62423    
         TOTAL TIME 3.69792E+07 6.16320E+05  10272.      428.00      1.1718    


end timestep


start timestep kper="2" kstp="115" mode="normal"

 UBDSV1 SAVING           STO-SS ON UNIT   1027 AT TIME STEP    115, STRESS PERIOD      2
 UBDSV1 SAVING     FLOW-JA-FACE ON UNIT   1027 AT TIME STEP    115, STRESS PERIOD      2

 WEL PACKAGE (WEL1) FLOW RATES   PERIOD      2   STEP      115
 -----------------------------------------------
   NUMBER   CELLID                    RATE      
 -----------------------------------------------
     1      (1,17,17)            -5.00000000E-05
     2      (1,33,17)            -5.00000000E-05
     3      (1,9,26)             -5.00000000E-05
     4      (1,17,35)            -5.00000000E-05
     5      (1,33,35)            -5.00000000E-05
     6      (1,26,26)            -5.00000000E-05
     7      (1,41,26)            -5.00000000E-05
     8      (1,4,39)             -5.00000000E-05
     9      (1,27,3)             -5.00000000E-05
     10     (1,46,46)            -5.00000000E-05
 -----------------------------------------------




 WEL PACKAGE (WEL2) FLOW RATES   PERIOD      2   STEP      115
 -----------------------------------------------
   NUMBER   CELLID                    RATE      
 -----------------------------------------------
     1      (1,17,26)             2.50000000E-04
     2      (1,33,26)             2.50000000E-04
 -----------------------------------------------




 HEAD WILL BE SAVED ON UNIT 1028 AT END OF TIME STEP  115, STRESS PERIOD    2


  VOLUME BUDGET FOR ENTIRE MODEL AT END OF TIME STEP  115, STRESS PERIOD   2
  ---------------------------------------------------------------------------------------------------

     CUMULATIVE VOLUME      L**3       RATES FOR THIS TIME STEP      L**3/T          PACKAGE NAME    
     ------------------                 ------------------------                     ----------------

           IN:                                      IN:
           ---                                      ---
              STO-SS =           0.0000                STO-SS =           0.0000     STORAGE                          
                 WEL =           0.0000                   WEL =           0.0000     WEL1                             
                 WEL =           0.2150                   WEL =       5.0000E-04     WEL2                             

            TOTAL IN =           0.2150              TOTAL IN =       5.0000E-04

          OUT:                                     OUT:
          ----                                     ----
              STO-SS =           0.0000                STO-SS =           0.0000     STORAGE                          
                 WEL =           0.2150                   WEL =       5.0000E-04     WEL1                             
                 WEL =           0.0000                   WEL =           0.0000     WEL2                             

           TOTAL OUT =           0.2150             TOTAL OUT =       5.0000E-04

            IN - OUT =       4.0000E-11              IN - OUT =      -1.0842E-19

 PERCENT DISCREPANCY =           0.00     PERCENT DISCREPANCY =          -0.00




         TIME SUMMARY AT END OF TIME STEP  115 IN STRESS PERIOD    2
                    SECONDS     MINUTES      HOURS       DAYS        YEARS
                    -----------------------------------------------------------
   TIME STEP LENGTH 1.72800E+05  2880.0      48.000      2.0000     5.47570E-03
 STRESS PERIOD TIME 1.98720E+07 3.31200E+05  5520.0      230.00     0.62971    
         TOTAL TIME 3.71520E+07 6.19200E+05  10320.      430.00      1.1773    


end timestep


start timestep kper="2" kstp="116" mode="normal"

 UBDSV1 SAVING           STO-SS ON UNIT   1027 AT TIME STEP    116, STRESS PERIOD      2
 UBDSV1 SAVING     FLOW-JA-FACE ON UNIT   1027 AT TIME STEP    116, STRESS PERIOD      2

 WEL PACKAGE (WEL1) FLOW RATES   PERIOD      2   STEP      116
 -----------------------------------------------
   NUMBER   CELLID                    RATE      
 -----------------------------------------------
     1      (1,17,17)            -5.00000000E-05
     2      (1,33,17)            -5.00000000E-05
     3      (1,9,26)             -5.00000000E-05
     4      (1,17,35)            -5.00000000E-05
     5      (1,33,35)            -5.00000000E-05
     6      (1,26,26)            -5.00000000E-05
     7      (1,41,26)            -5.00000000E-05
     8      (1,4,39)             -5.00000000E-05
     9      (1,27,3)             -5.00000000E-05
     10     (1,46,46)            -5.00000000E-05
 -----------------------------------------------




 WEL PACKAGE (WEL2) FLOW RATES   PERIOD      2   STEP      116
 -----------------------------------------------
   NUMBER   CELLID                    RATE      
 -----------------------------------------------
     1      (1,17,26)             2.50000000E-04
     2      (1,33,26)             2.50000000E-04
 -----------------------------------------------




 HEAD WILL BE SAVED ON UNIT 1028 AT END OF TIME STEP  116, STRESS PERIOD    2


  VOLUME BUDGET FOR ENTIRE MODEL AT END OF TIME STEP  116, STRESS PERIOD   2
  ---------------------------------------------------------------------------------------------------

     CUMULATIVE VOLUME      L**3       RATES FOR THIS TIME STEP      L**3/T          PACKAGE NAME    
     ------------------                 ------------------------                     ----------------

           IN:                                      IN:
           ---                                      ---
              STO-SS =           0.0000                STO-SS =           0.0000     STORAGE                          
                 WEL =           0.0000                   WEL =           0.0000     WEL1                             
                 WEL =           0.2160                   WEL =       5.0000E-04     WEL2                             

            TOTAL IN =           0.2160              TOTAL IN =       5.0000E-04

          OUT:                                     OUT:
          ----                                     ----
              STO-SS =           0.0000                STO-SS =           0.0000     STORAGE                          
                 WEL =           0.2160                   WEL =       5.0000E-04     WEL1                             
                 WEL =           0.0000                   WEL =           0.0000     WEL2                             

           TOTAL OUT =           0.2160             TOTAL OUT =       5.0000E-04

            IN - OUT =       4.0000E-11              IN - OUT =      -1.0842E-19

 PERCENT DISCREPANCY =           0.00     PERCENT DISCREPANCY =          -0.00




         TIME SUMMARY AT END OF TIME STEP  116 IN STRESS PERIOD    2
                    SECONDS     MINUTES      HOURS       DAYS        YEARS
                    -----------------------------------------------------------
   TIME STEP LENGTH 1.72800E+05  2880.0      48.000      2.0000     5.47570E-03
 STRESS PERIOD TIME 2.00448E+07 3.34080E+05  5568.0      232.00     0.63518    
         TOTAL TIME 3.73248E+07 6.22080E+05  10368.      432.00      1.1828    


end timestep


start timestep kper="2" kstp="117" mode="normal"

 UBDSV1 SAVING           STO-SS ON UNIT   1027 AT TIME STEP    117, STRESS PERIOD      2
 UBDSV1 SAVING     FLOW-JA-FACE ON UNIT   1027 AT TIME STEP    117, STRESS PERIOD      2

 WEL PACKAGE (WEL1) FLOW RATES   PERIOD      2   STEP      117
 -----------------------------------------------
   NUMBER   CELLID                    RATE      
 -----------------------------------------------
     1      (1,17,17)            -5.00000000E-05
     2      (1,33,17)            -5.00000000E-05
     3      (1,9,26)             -5.00000000E-05
     4      (1,17,35)            -5.00000000E-05
     5      (1,33,35)            -5.00000000E-05
     6      (1,26,26)            -5.00000000E-05
     7      (1,41,26)            -5.00000000E-05
     8      (1,4,39)             -5.00000000E-05
     9      (1,27,3)             -5.00000000E-05
     10     (1,46,46)            -5.00000000E-05
 -----------------------------------------------




 WEL PACKAGE (WEL2) FLOW RATES   PERIOD      2   STEP      117
 -----------------------------------------------
   NUMBER   CELLID                    RATE      
 -----------------------------------------------
     1      (1,17,26)             2.50000000E-04
     2      (1,33,26)             2.50000000E-04
 -----------------------------------------------




 HEAD WILL BE SAVED ON UNIT 1028 AT END OF TIME STEP  117, STRESS PERIOD    2


  VOLUME BUDGET FOR ENTIRE MODEL AT END OF TIME STEP  117, STRESS PERIOD   2
  ---------------------------------------------------------------------------------------------------

     CUMULATIVE VOLUME      L**3       RATES FOR THIS TIME STEP      L**3/T          PACKAGE NAME    
     ------------------                 ------------------------                     ----------------

           IN:                                      IN:
           ---                                      ---
              STO-SS =           0.0000                STO-SS =           0.0000     STORAGE                          
                 WEL =           0.0000                   WEL =           0.0000     WEL1                             
                 WEL =           0.2170                   WEL =       5.0000E-04     WEL2                             

            TOTAL IN =           0.2170              TOTAL IN =       5.0000E-04

          OUT:                                     OUT:
          ----                                     ----
              STO-SS =           0.0000                STO-SS =           0.0000     STORAGE                          
                 WEL =           0.2170                   WEL =       5.0000E-04     WEL1                             
                 WEL =           0.0000                   WEL =           0.0000     WEL2                             

           TOTAL OUT =           0.2170             TOTAL OUT =       5.0000E-04

            IN - OUT =       4.0000E-11              IN - OUT =      -1.0842E-19

 PERCENT DISCREPANCY =           0.00     PERCENT DISCREPANCY =          -0.00




         TIME SUMMARY AT END OF TIME STEP  117 IN STRESS PERIOD    2
                    SECONDS     MINUTES      HOURS       DAYS        YEARS
                    -----------------------------------------------------------
   TIME STEP LENGTH 1.72800E+05  2880.0      48.000      2.0000     5.47570E-03
 STRESS PERIOD TIME 2.02176E+07 3.36960E+05  5616.0      234.00     0.64066    
         TOTAL TIME 3.74976E+07 6.24960E+05  10416.      434.00      1.1882    


end timestep


start timestep kper="2" kstp="118" mode="normal"

 UBDSV1 SAVING           STO-SS ON UNIT   1027 AT TIME STEP    118, STRESS PERIOD      2
 UBDSV1 SAVING     FLOW-JA-FACE ON UNIT   1027 AT TIME STEP    118, STRESS PERIOD      2

 WEL PACKAGE (WEL1) FLOW RATES   PERIOD      2   STEP      118
 -----------------------------------------------
   NUMBER   CELLID                    RATE      
 -----------------------------------------------
     1      (1,17,17)            -5.00000000E-05
     2      (1,33,17)            -5.00000000E-05
     3      (1,9,26)             -5.00000000E-05
     4      (1,17,35)            -5.00000000E-05
     5      (1,33,35)            -5.00000000E-05
     6      (1,26,26)            -5.00000000E-05
     7      (1,41,26)            -5.00000000E-05
     8      (1,4,39)             -5.00000000E-05
     9      (1,27,3)             -5.00000000E-05
     10     (1,46,46)            -5.00000000E-05
 -----------------------------------------------




 WEL PACKAGE (WEL2) FLOW RATES   PERIOD      2   STEP      118
 -----------------------------------------------
   NUMBER   CELLID                    RATE      
 -----------------------------------------------
     1      (1,17,26)             2.50000000E-04
     2      (1,33,26)             2.50000000E-04
 -----------------------------------------------




 HEAD WILL BE SAVED ON UNIT 1028 AT END OF TIME STEP  118, STRESS PERIOD    2


  VOLUME BUDGET FOR ENTIRE MODEL AT END OF TIME STEP  118, STRESS PERIOD   2
  ---------------------------------------------------------------------------------------------------

     CUMULATIVE VOLUME      L**3       RATES FOR THIS TIME STEP      L**3/T          PACKAGE NAME    
     ------------------                 ------------------------                     ----------------

           IN:                                      IN:
           ---                                      ---
              STO-SS =           0.0000                STO-SS =           0.0000     STORAGE                          
                 WEL =           0.0000                   WEL =           0.0000     WEL1                             
                 WEL =           0.2180                   WEL =       5.0000E-04     WEL2                             

            TOTAL IN =           0.2180              TOTAL IN =       5.0000E-04

          OUT:                                     OUT:
          ----                                     ----
              STO-SS =           0.0000                STO-SS =           0.0000     STORAGE                          
                 WEL =           0.2180                   WEL =       5.0000E-04     WEL1                             
                 WEL =           0.0000                   WEL =           0.0000     WEL2                             

           TOTAL OUT =           0.2180             TOTAL OUT =       5.0000E-04

            IN - OUT =       4.0000E-11              IN - OUT =      -1.0842E-19

 PERCENT DISCREPANCY =           0.00     PERCENT DISCREPANCY =          -0.00




         TIME SUMMARY AT END OF TIME STEP  118 IN STRESS PERIOD    2
                    SECONDS     MINUTES      HOURS       DAYS        YEARS
                    -----------------------------------------------------------
   TIME STEP LENGTH 1.72800E+05  2880.0      48.000      2.0000     5.47570E-03
 STRESS PERIOD TIME 2.03904E+07 3.39840E+05  5664.0      236.00     0.64613    
         TOTAL TIME 3.76704E+07 6.27840E+05  10464.      436.00      1.1937    


end timestep


start timestep kper="2" kstp="119" mode="normal"

 UBDSV1 SAVING           STO-SS ON UNIT   1027 AT TIME STEP    119, STRESS PERIOD      2
 UBDSV1 SAVING     FLOW-JA-FACE ON UNIT   1027 AT TIME STEP    119, STRESS PERIOD      2

 WEL PACKAGE (WEL1) FLOW RATES   PERIOD      2   STEP      119
 -----------------------------------------------
   NUMBER   CELLID                    RATE      
 -----------------------------------------------
     1      (1,17,17)            -5.00000000E-05
     2      (1,33,17)            -5.00000000E-05
     3      (1,9,26)             -5.00000000E-05
     4      (1,17,35)            -5.00000000E-05
     5      (1,33,35)            -5.00000000E-05
     6      (1,26,26)            -5.00000000E-05
     7      (1,41,26)            -5.00000000E-05
     8      (1,4,39)             -5.00000000E-05
     9      (1,27,3)             -5.00000000E-05
     10     (1,46,46)            -5.00000000E-05
 -----------------------------------------------




 WEL PACKAGE (WEL2) FLOW RATES   PERIOD      2   STEP      119
 -----------------------------------------------
   NUMBER   CELLID                    RATE      
 -----------------------------------------------
     1      (1,17,26)             2.50000000E-04
     2      (1,33,26)             2.50000000E-04
 -----------------------------------------------




 HEAD WILL BE SAVED ON UNIT 1028 AT END OF TIME STEP  119, STRESS PERIOD    2


  VOLUME BUDGET FOR ENTIRE MODEL AT END OF TIME STEP  119, STRESS PERIOD   2
  ---------------------------------------------------------------------------------------------------

     CUMULATIVE VOLUME      L**3       RATES FOR THIS TIME STEP      L**3/T          PACKAGE NAME    
     ------------------                 ------------------------                     ----------------

           IN:                                      IN:
           ---                                      ---
              STO-SS =           0.0000                STO-SS =           0.0000     STORAGE                          
                 WEL =           0.0000                   WEL =           0.0000     WEL1                             
                 WEL =           0.2190                   WEL =       5.0000E-04     WEL2                             

            TOTAL IN =           0.2190              TOTAL IN =       5.0000E-04

          OUT:                                     OUT:
          ----                                     ----
              STO-SS =           0.0000                STO-SS =           0.0000     STORAGE                          
                 WEL =           0.2190                   WEL =       5.0000E-04     WEL1                             
                 WEL =           0.0000                   WEL =           0.0000     WEL2                             

           TOTAL OUT =           0.2190             TOTAL OUT =       5.0000E-04

            IN - OUT =       4.0000E-11              IN - OUT =      -1.0842E-19

 PERCENT DISCREPANCY =           0.00     PERCENT DISCREPANCY =          -0.00




         TIME SUMMARY AT END OF TIME STEP  119 IN STRESS PERIOD    2
                    SECONDS     MINUTES      HOURS       DAYS        YEARS
                    -----------------------------------------------------------
   TIME STEP LENGTH 1.72800E+05  2880.0      48.000      2.0000     5.47570E-03
 STRESS PERIOD TIME 2.05632E+07 3.42720E+05  5712.0      238.00     0.65161    
         TOTAL TIME 3.78432E+07 6.30720E+05  10512.      438.00      1.1992    


end timestep


start timestep kper="2" kstp="120" mode="normal"

 UBDSV1 SAVING           STO-SS ON UNIT   1027 AT TIME STEP    120, STRESS PERIOD      2
 UBDSV1 SAVING     FLOW-JA-FACE ON UNIT   1027 AT TIME STEP    120, STRESS PERIOD      2

 WEL PACKAGE (WEL1) FLOW RATES   PERIOD      2   STEP      120
 -----------------------------------------------
   NUMBER   CELLID                    RATE      
 -----------------------------------------------
     1      (1,17,17)            -5.00000000E-05
     2      (1,33,17)            -5.00000000E-05
     3      (1,9,26)             -5.00000000E-05
     4      (1,17,35)            -5.00000000E-05
     5      (1,33,35)            -5.00000000E-05
     6      (1,26,26)            -5.00000000E-05
     7      (1,41,26)            -5.00000000E-05
     8      (1,4,39)             -5.00000000E-05
     9      (1,27,3)             -5.00000000E-05
     10     (1,46,46)            -5.00000000E-05
 -----------------------------------------------




 WEL PACKAGE (WEL2) FLOW RATES   PERIOD      2   STEP      120
 -----------------------------------------------
   NUMBER   CELLID                    RATE      
 -----------------------------------------------
     1      (1,17,26)             2.50000000E-04
     2      (1,33,26)             2.50000000E-04
 -----------------------------------------------




 HEAD WILL BE SAVED ON UNIT 1028 AT END OF TIME STEP  120, STRESS PERIOD    2


  VOLUME BUDGET FOR ENTIRE MODEL AT END OF TIME STEP  120, STRESS PERIOD   2
  ---------------------------------------------------------------------------------------------------

     CUMULATIVE VOLUME      L**3       RATES FOR THIS TIME STEP      L**3/T          PACKAGE NAME    
     ------------------                 ------------------------                     ----------------

           IN:                                      IN:
           ---                                      ---
              STO-SS =           0.0000                STO-SS =           0.0000     STORAGE                          
                 WEL =           0.0000                   WEL =           0.0000     WEL1                             
                 WEL =           0.2200                   WEL =       5.0000E-04     WEL2                             

            TOTAL IN =           0.2200              TOTAL IN =       5.0000E-04

          OUT:                                     OUT:
          ----                                     ----
              STO-SS =           0.0000                STO-SS =           0.0000     STORAGE                          
                 WEL =           0.2200                   WEL =       5.0000E-04     WEL1                             
                 WEL =           0.0000                   WEL =           0.0000     WEL2                             

           TOTAL OUT =           0.2200             TOTAL OUT =       5.0000E-04

            IN - OUT =       4.0000E-11              IN - OUT =      -1.0842E-19

 PERCENT DISCREPANCY =           0.00     PERCENT DISCREPANCY =          -0.00




         TIME SUMMARY AT END OF TIME STEP  120 IN STRESS PERIOD    2
                    SECONDS     MINUTES      HOURS       DAYS        YEARS
                    -----------------------------------------------------------
   TIME STEP LENGTH 1.72800E+05  2880.0      48.000      2.0000     5.47570E-03
 STRESS PERIOD TIME 2.07360E+07 3.45600E+05  5760.0      240.00     0.65708    
         TOTAL TIME 3.80160E+07 6.33600E+05  10560.      440.00      1.2047    


end timestep


start timestep kper="2" kstp="121" mode="normal"

 UBDSV1 SAVING           STO-SS ON UNIT   1027 AT TIME STEP    121, STRESS PERIOD      2
 UBDSV1 SAVING     FLOW-JA-FACE ON UNIT   1027 AT TIME STEP    121, STRESS PERIOD      2

 WEL PACKAGE (WEL1) FLOW RATES   PERIOD      2   STEP      121
 -----------------------------------------------
   NUMBER   CELLID                    RATE      
 -----------------------------------------------
     1      (1,17,17)            -5.00000000E-05
     2      (1,33,17)            -5.00000000E-05
     3      (1,9,26)             -5.00000000E-05
     4      (1,17,35)            -5.00000000E-05
     5      (1,33,35)            -5.00000000E-05
     6      (1,26,26)            -5.00000000E-05
     7      (1,41,26)            -5.00000000E-05
     8      (1,4,39)             -5.00000000E-05
     9      (1,27,3)             -5.00000000E-05
     10     (1,46,46)            -5.00000000E-05
 -----------------------------------------------




 WEL PACKAGE (WEL2) FLOW RATES   PERIOD      2   STEP      121
 -----------------------------------------------
   NUMBER   CELLID                    RATE      
 -----------------------------------------------
     1      (1,17,26)             2.50000000E-04
     2      (1,33,26)             2.50000000E-04
 -----------------------------------------------




 HEAD WILL BE SAVED ON UNIT 1028 AT END OF TIME STEP  121, STRESS PERIOD    2


  VOLUME BUDGET FOR ENTIRE MODEL AT END OF TIME STEP  121, STRESS PERIOD   2
  ---------------------------------------------------------------------------------------------------

     CUMULATIVE VOLUME      L**3       RATES FOR THIS TIME STEP      L**3/T          PACKAGE NAME    
     ------------------                 ------------------------                     ----------------

           IN:                                      IN:
           ---                                      ---
              STO-SS =           0.0000                STO-SS =           0.0000     STORAGE                          
                 WEL =           0.0000                   WEL =           0.0000     WEL1                             
                 WEL =           0.2210                   WEL =       5.0000E-04     WEL2                             

            TOTAL IN =           0.2210              TOTAL IN =       5.0000E-04

          OUT:                                     OUT:
          ----                                     ----
              STO-SS =           0.0000                STO-SS =           0.0000     STORAGE                          
                 WEL =           0.2210                   WEL =       5.0000E-04     WEL1                             
                 WEL =           0.0000                   WEL =           0.0000     WEL2                             

           TOTAL OUT =           0.2210             TOTAL OUT =       5.0000E-04

            IN - OUT =       4.0000E-11              IN - OUT =      -1.0842E-19

 PERCENT DISCREPANCY =           0.00     PERCENT DISCREPANCY =          -0.00




         TIME SUMMARY AT END OF TIME STEP  121 IN STRESS PERIOD    2
                    SECONDS     MINUTES      HOURS       DAYS        YEARS
                    -----------------------------------------------------------
   TIME STEP LENGTH 1.72800E+05  2880.0      48.000      2.0000     5.47570E-03
 STRESS PERIOD TIME 2.09088E+07 3.48480E+05  5808.0      242.00     0.66256    
         TOTAL TIME 3.81888E+07 6.36480E+05  10608.      442.00      1.2101    


end timestep


start timestep kper="2" kstp="122" mode="normal"

 UBDSV1 SAVING           STO-SS ON UNIT   1027 AT TIME STEP    122, STRESS PERIOD      2
 UBDSV1 SAVING     FLOW-JA-FACE ON UNIT   1027 AT TIME STEP    122, STRESS PERIOD      2

 WEL PACKAGE (WEL1) FLOW RATES   PERIOD      2   STEP      122
 -----------------------------------------------
   NUMBER   CELLID                    RATE      
 -----------------------------------------------
     1      (1,17,17)            -5.00000000E-05
     2      (1,33,17)            -5.00000000E-05
     3      (1,9,26)             -5.00000000E-05
     4      (1,17,35)            -5.00000000E-05
     5      (1,33,35)            -5.00000000E-05
     6      (1,26,26)            -5.00000000E-05
     7      (1,41,26)            -5.00000000E-05
     8      (1,4,39)             -5.00000000E-05
     9      (1,27,3)             -5.00000000E-05
     10     (1,46,46)            -5.00000000E-05
 -----------------------------------------------




 WEL PACKAGE (WEL2) FLOW RATES   PERIOD      2   STEP      122
 -----------------------------------------------
   NUMBER   CELLID                    RATE      
 -----------------------------------------------
     1      (1,17,26)             2.50000000E-04
     2      (1,33,26)             2.50000000E-04
 -----------------------------------------------




 HEAD WILL BE SAVED ON UNIT 1028 AT END OF TIME STEP  122, STRESS PERIOD    2


  VOLUME BUDGET FOR ENTIRE MODEL AT END OF TIME STEP  122, STRESS PERIOD   2
  ---------------------------------------------------------------------------------------------------

     CUMULATIVE VOLUME      L**3       RATES FOR THIS TIME STEP      L**3/T          PACKAGE NAME    
     ------------------                 ------------------------                     ----------------

           IN:                                      IN:
           ---                                      ---
              STO-SS =           0.0000                STO-SS =           0.0000     STORAGE                          
                 WEL =           0.0000                   WEL =           0.0000     WEL1                             
                 WEL =           0.2220                   WEL =       5.0000E-04     WEL2                             

            TOTAL IN =           0.2220              TOTAL IN =       5.0000E-04

          OUT:                                     OUT:
          ----                                     ----
              STO-SS =           0.0000                STO-SS =           0.0000     STORAGE                          
                 WEL =           0.2220                   WEL =       5.0000E-04     WEL1                             
                 WEL =           0.0000                   WEL =           0.0000     WEL2                             

           TOTAL OUT =           0.2220             TOTAL OUT =       5.0000E-04

            IN - OUT =       4.0000E-11              IN - OUT =      -1.0842E-19

 PERCENT DISCREPANCY =           0.00     PERCENT DISCREPANCY =          -0.00




         TIME SUMMARY AT END OF TIME STEP  122 IN STRESS PERIOD    2
                    SECONDS     MINUTES      HOURS       DAYS        YEARS
                    -----------------------------------------------------------
   TIME STEP LENGTH 1.72800E+05  2880.0      48.000      2.0000     5.47570E-03
 STRESS PERIOD TIME 2.10816E+07 3.51360E+05  5856.0      244.00     0.66804    
         TOTAL TIME 3.83616E+07 6.39360E+05  10656.      444.00      1.2156    


end timestep


start timestep kper="2" kstp="123" mode="normal"

 UBDSV1 SAVING           STO-SS ON UNIT   1027 AT TIME STEP    123, STRESS PERIOD      2
 UBDSV1 SAVING     FLOW-JA-FACE ON UNIT   1027 AT TIME STEP    123, STRESS PERIOD      2

 WEL PACKAGE (WEL1) FLOW RATES   PERIOD      2   STEP      123
 -----------------------------------------------
   NUMBER   CELLID                    RATE      
 -----------------------------------------------
     1      (1,17,17)            -5.00000000E-05
     2      (1,33,17)            -5.00000000E-05
     3      (1,9,26)             -5.00000000E-05
     4      (1,17,35)            -5.00000000E-05
     5      (1,33,35)            -5.00000000E-05
     6      (1,26,26)            -5.00000000E-05
     7      (1,41,26)            -5.00000000E-05
     8      (1,4,39)             -5.00000000E-05
     9      (1,27,3)             -5.00000000E-05
     10     (1,46,46)            -5.00000000E-05
 -----------------------------------------------




 WEL PACKAGE (WEL2) FLOW RATES   PERIOD      2   STEP      123
 -----------------------------------------------
   NUMBER   CELLID                    RATE      
 -----------------------------------------------
     1      (1,17,26)             2.50000000E-04
     2      (1,33,26)             2.50000000E-04
 -----------------------------------------------




 HEAD WILL BE SAVED ON UNIT 1028 AT END OF TIME STEP  123, STRESS PERIOD    2


  VOLUME BUDGET FOR ENTIRE MODEL AT END OF TIME STEP  123, STRESS PERIOD   2
  ---------------------------------------------------------------------------------------------------

     CUMULATIVE VOLUME      L**3       RATES FOR THIS TIME STEP      L**3/T          PACKAGE NAME    
     ------------------                 ------------------------                     ----------------

           IN:                                      IN:
           ---                                      ---
              STO-SS =           0.0000                STO-SS =           0.0000     STORAGE                          
                 WEL =           0.0000                   WEL =           0.0000     WEL1                             
                 WEL =           0.2230                   WEL =       5.0000E-04     WEL2                             

            TOTAL IN =           0.2230              TOTAL IN =       5.0000E-04

          OUT:                                     OUT:
          ----                                     ----
              STO-SS =           0.0000                STO-SS =           0.0000     STORAGE                          
                 WEL =           0.2230                   WEL =       5.0000E-04     WEL1                             
                 WEL =           0.0000                   WEL =           0.0000     WEL2                             

           TOTAL OUT =           0.2230             TOTAL OUT =       5.0000E-04

            IN - OUT =       4.0000E-11              IN - OUT =      -1.0842E-19

 PERCENT DISCREPANCY =           0.00     PERCENT DISCREPANCY =          -0.00




         TIME SUMMARY AT END OF TIME STEP  123 IN STRESS PERIOD    2
                    SECONDS     MINUTES      HOURS       DAYS        YEARS
                    -----------------------------------------------------------
   TIME STEP LENGTH 1.72800E+05  2880.0      48.000      2.0000     5.47570E-03
 STRESS PERIOD TIME 2.12544E+07 3.54240E+05  5904.0      246.00     0.67351    
         TOTAL TIME 3.85344E+07 6.42240E+05  10704.      446.00      1.2211    


end timestep


start timestep kper="2" kstp="124" mode="normal"

 UBDSV1 SAVING           STO-SS ON UNIT   1027 AT TIME STEP    124, STRESS PERIOD      2
 UBDSV1 SAVING     FLOW-JA-FACE ON UNIT   1027 AT TIME STEP    124, STRESS PERIOD      2

 WEL PACKAGE (WEL1) FLOW RATES   PERIOD      2   STEP      124
 -----------------------------------------------
   NUMBER   CELLID                    RATE      
 -----------------------------------------------
     1      (1,17,17)            -5.00000000E-05
     2      (1,33,17)            -5.00000000E-05
     3      (1,9,26)             -5.00000000E-05
     4      (1,17,35)            -5.00000000E-05
     5      (1,33,35)            -5.00000000E-05
     6      (1,26,26)            -5.00000000E-05
     7      (1,41,26)            -5.00000000E-05
     8      (1,4,39)             -5.00000000E-05
     9      (1,27,3)             -5.00000000E-05
     10     (1,46,46)            -5.00000000E-05
 -----------------------------------------------




 WEL PACKAGE (WEL2) FLOW RATES   PERIOD      2   STEP      124
 -----------------------------------------------
   NUMBER   CELLID                    RATE      
 -----------------------------------------------
     1      (1,17,26)             2.50000000E-04
     2      (1,33,26)             2.50000000E-04
 -----------------------------------------------




 HEAD WILL BE SAVED ON UNIT 1028 AT END OF TIME STEP  124, STRESS PERIOD    2


  VOLUME BUDGET FOR ENTIRE MODEL AT END OF TIME STEP  124, STRESS PERIOD   2
  ---------------------------------------------------------------------------------------------------

     CUMULATIVE VOLUME      L**3       RATES FOR THIS TIME STEP      L**3/T          PACKAGE NAME    
     ------------------                 ------------------------                     ----------------

           IN:                                      IN:
           ---                                      ---
              STO-SS =           0.0000                STO-SS =           0.0000     STORAGE                          
                 WEL =           0.0000                   WEL =           0.0000     WEL1                             
                 WEL =           0.2240                   WEL =       5.0000E-04     WEL2                             

            TOTAL IN =           0.2240              TOTAL IN =       5.0000E-04

          OUT:                                     OUT:
          ----                                     ----
              STO-SS =           0.0000                STO-SS =           0.0000     STORAGE                          
                 WEL =           0.2240                   WEL =       5.0000E-04     WEL1                             
                 WEL =           0.0000                   WEL =           0.0000     WEL2                             

           TOTAL OUT =           0.2240             TOTAL OUT =       5.0000E-04

            IN - OUT =       4.0000E-11              IN - OUT =      -1.0842E-19

 PERCENT DISCREPANCY =           0.00     PERCENT DISCREPANCY =          -0.00




         TIME SUMMARY AT END OF TIME STEP  124 IN STRESS PERIOD    2
                    SECONDS     MINUTES      HOURS       DAYS        YEARS
                    -----------------------------------------------------------
   TIME STEP LENGTH 1.72800E+05  2880.0      48.000      2.0000     5.47570E-03
 STRESS PERIOD TIME 2.14272E+07 3.57120E+05  5952.0      248.00     0.67899    
         TOTAL TIME 3.87072E+07 6.45120E+05  10752.      448.00      1.2266    


end timestep


start timestep kper="2" kstp="125" mode="normal"

 UBDSV1 SAVING           STO-SS ON UNIT   1027 AT TIME STEP    125, STRESS PERIOD      2
 UBDSV1 SAVING     FLOW-JA-FACE ON UNIT   1027 AT TIME STEP    125, STRESS PERIOD      2

 WEL PACKAGE (WEL1) FLOW RATES   PERIOD      2   STEP      125
 -----------------------------------------------
   NUMBER   CELLID                    RATE      
 -----------------------------------------------
     1      (1,17,17)            -5.00000000E-05
     2      (1,33,17)            -5.00000000E-05
     3      (1,9,26)             -5.00000000E-05
     4      (1,17,35)            -5.00000000E-05
     5      (1,33,35)            -5.00000000E-05
     6      (1,26,26)            -5.00000000E-05
     7      (1,41,26)            -5.00000000E-05
     8      (1,4,39)             -5.00000000E-05
     9      (1,27,3)             -5.00000000E-05
     10     (1,46,46)            -5.00000000E-05
 -----------------------------------------------




 WEL PACKAGE (WEL2) FLOW RATES   PERIOD      2   STEP      125
 -----------------------------------------------
   NUMBER   CELLID                    RATE      
 -----------------------------------------------
     1      (1,17,26)             2.50000000E-04
     2      (1,33,26)             2.50000000E-04
 -----------------------------------------------




 HEAD WILL BE SAVED ON UNIT 1028 AT END OF TIME STEP  125, STRESS PERIOD    2


  VOLUME BUDGET FOR ENTIRE MODEL AT END OF TIME STEP  125, STRESS PERIOD   2
  ---------------------------------------------------------------------------------------------------

     CUMULATIVE VOLUME      L**3       RATES FOR THIS TIME STEP      L**3/T          PACKAGE NAME    
     ------------------                 ------------------------                     ----------------

           IN:                                      IN:
           ---                                      ---
              STO-SS =           0.0000                STO-SS =           0.0000     STORAGE                          
                 WEL =           0.0000                   WEL =           0.0000     WEL1                             
                 WEL =           0.2250                   WEL =       5.0000E-04     WEL2                             

            TOTAL IN =           0.2250              TOTAL IN =       5.0000E-04

          OUT:                                     OUT:
          ----                                     ----
              STO-SS =           0.0000                STO-SS =           0.0000     STORAGE                          
                 WEL =           0.2250                   WEL =       5.0000E-04     WEL1                             
                 WEL =           0.0000                   WEL =           0.0000     WEL2                             

           TOTAL OUT =           0.2250             TOTAL OUT =       5.0000E-04

            IN - OUT =       4.0000E-11              IN - OUT =      -1.0842E-19

 PERCENT DISCREPANCY =           0.00     PERCENT DISCREPANCY =          -0.00




         TIME SUMMARY AT END OF TIME STEP  125 IN STRESS PERIOD    2
                    SECONDS     MINUTES      HOURS       DAYS        YEARS
                    -----------------------------------------------------------
   TIME STEP LENGTH 1.72800E+05  2880.0      48.000      2.0000     5.47570E-03
 STRESS PERIOD TIME 2.16000E+07 3.60000E+05  6000.0      250.00     0.68446    
         TOTAL TIME 3.88800E+07 6.48000E+05  10800.      450.00      1.2320    


end timestep


start timestep kper="2" kstp="126" mode="normal"

 UBDSV1 SAVING           STO-SS ON UNIT   1027 AT TIME STEP    126, STRESS PERIOD      2
 UBDSV1 SAVING     FLOW-JA-FACE ON UNIT   1027 AT TIME STEP    126, STRESS PERIOD      2

 WEL PACKAGE (WEL1) FLOW RATES   PERIOD      2   STEP      126
 -----------------------------------------------
   NUMBER   CELLID                    RATE      
 -----------------------------------------------
     1      (1,17,17)            -5.00000000E-05
     2      (1,33,17)            -5.00000000E-05
     3      (1,9,26)             -5.00000000E-05
     4      (1,17,35)            -5.00000000E-05
     5      (1,33,35)            -5.00000000E-05
     6      (1,26,26)            -5.00000000E-05
     7      (1,41,26)            -5.00000000E-05
     8      (1,4,39)             -5.00000000E-05
     9      (1,27,3)             -5.00000000E-05
     10     (1,46,46)            -5.00000000E-05
 -----------------------------------------------




 WEL PACKAGE (WEL2) FLOW RATES   PERIOD      2   STEP      126
 -----------------------------------------------
   NUMBER   CELLID                    RATE      
 -----------------------------------------------
     1      (1,17,26)             2.50000000E-04
     2      (1,33,26)             2.50000000E-04
 -----------------------------------------------




 HEAD WILL BE SAVED ON UNIT 1028 AT END OF TIME STEP  126, STRESS PERIOD    2


  VOLUME BUDGET FOR ENTIRE MODEL AT END OF TIME STEP  126, STRESS PERIOD   2
  ---------------------------------------------------------------------------------------------------

     CUMULATIVE VOLUME      L**3       RATES FOR THIS TIME STEP      L**3/T          PACKAGE NAME    
     ------------------                 ------------------------                     ----------------

           IN:                                      IN:
           ---                                      ---
              STO-SS =           0.0000                STO-SS =           0.0000     STORAGE                          
                 WEL =           0.0000                   WEL =           0.0000     WEL1                             
                 WEL =           0.2260                   WEL =       5.0000E-04     WEL2                             

            TOTAL IN =           0.2260              TOTAL IN =       5.0000E-04

          OUT:                                     OUT:
          ----                                     ----
              STO-SS =           0.0000                STO-SS =           0.0000     STORAGE                          
                 WEL =           0.2260                   WEL =       5.0000E-04     WEL1                             
                 WEL =           0.0000                   WEL =           0.0000     WEL2                             

           TOTAL OUT =           0.2260             TOTAL OUT =       5.0000E-04

            IN - OUT =       4.0000E-11              IN - OUT =      -1.0842E-19

 PERCENT DISCREPANCY =           0.00     PERCENT DISCREPANCY =          -0.00




         TIME SUMMARY AT END OF TIME STEP  126 IN STRESS PERIOD    2
                    SECONDS     MINUTES      HOURS       DAYS        YEARS
                    -----------------------------------------------------------
   TIME STEP LENGTH 1.72800E+05  2880.0      48.000      2.0000     5.47570E-03
 STRESS PERIOD TIME 2.17728E+07 3.62880E+05  6048.0      252.00     0.68994    
         TOTAL TIME 3.90528E+07 6.50880E+05  10848.      452.00      1.2375    


end timestep


start timestep kper="2" kstp="127" mode="normal"

 UBDSV1 SAVING           STO-SS ON UNIT   1027 AT TIME STEP    127, STRESS PERIOD      2
 UBDSV1 SAVING     FLOW-JA-FACE ON UNIT   1027 AT TIME STEP    127, STRESS PERIOD      2

 WEL PACKAGE (WEL1) FLOW RATES   PERIOD      2   STEP      127
 -----------------------------------------------
   NUMBER   CELLID                    RATE      
 -----------------------------------------------
     1      (1,17,17)            -5.00000000E-05
     2      (1,33,17)            -5.00000000E-05
     3      (1,9,26)             -5.00000000E-05
     4      (1,17,35)            -5.00000000E-05
     5      (1,33,35)            -5.00000000E-05
     6      (1,26,26)            -5.00000000E-05
     7      (1,41,26)            -5.00000000E-05
     8      (1,4,39)             -5.00000000E-05
     9      (1,27,3)             -5.00000000E-05
     10     (1,46,46)            -5.00000000E-05
 -----------------------------------------------




 WEL PACKAGE (WEL2) FLOW RATES   PERIOD      2   STEP      127
 -----------------------------------------------
   NUMBER   CELLID                    RATE      
 -----------------------------------------------
     1      (1,17,26)             2.50000000E-04
     2      (1,33,26)             2.50000000E-04
 -----------------------------------------------




 HEAD WILL BE SAVED ON UNIT 1028 AT END OF TIME STEP  127, STRESS PERIOD    2


  VOLUME BUDGET FOR ENTIRE MODEL AT END OF TIME STEP  127, STRESS PERIOD   2
  ---------------------------------------------------------------------------------------------------

     CUMULATIVE VOLUME      L**3       RATES FOR THIS TIME STEP      L**3/T          PACKAGE NAME    
     ------------------                 ------------------------                     ----------------

           IN:                                      IN:
           ---                                      ---
              STO-SS =           0.0000                STO-SS =           0.0000     STORAGE                          
                 WEL =           0.0000                   WEL =           0.0000     WEL1                             
                 WEL =           0.2270                   WEL =       5.0000E-04     WEL2                             

            TOTAL IN =           0.2270              TOTAL IN =       5.0000E-04

          OUT:                                     OUT:
          ----                                     ----
              STO-SS =           0.0000                STO-SS =           0.0000     STORAGE                          
                 WEL =           0.2270                   WEL =       5.0000E-04     WEL1                             
                 WEL =           0.0000                   WEL =           0.0000     WEL2                             

           TOTAL OUT =           0.2270             TOTAL OUT =       5.0000E-04

            IN - OUT =       4.0000E-11              IN - OUT =      -1.0842E-19

 PERCENT DISCREPANCY =           0.00     PERCENT DISCREPANCY =          -0.00




         TIME SUMMARY AT END OF TIME STEP  127 IN STRESS PERIOD    2
                    SECONDS     MINUTES      HOURS       DAYS        YEARS
                    -----------------------------------------------------------
   TIME STEP LENGTH 1.72800E+05  2880.0      48.000      2.0000     5.47570E-03
 STRESS PERIOD TIME 2.19456E+07 3.65760E+05  6096.0      254.00     0.69541    
         TOTAL TIME 3.92256E+07 6.53760E+05  10896.      454.00      1.2430    


end timestep


start timestep kper="2" kstp="128" mode="normal"

 UBDSV1 SAVING           STO-SS ON UNIT   1027 AT TIME STEP    128, STRESS PERIOD      2
 UBDSV1 SAVING     FLOW-JA-FACE ON UNIT   1027 AT TIME STEP    128, STRESS PERIOD      2

 WEL PACKAGE (WEL1) FLOW RATES   PERIOD      2   STEP      128
 -----------------------------------------------
   NUMBER   CELLID                    RATE      
 -----------------------------------------------
     1      (1,17,17)            -5.00000000E-05
     2      (1,33,17)            -5.00000000E-05
     3      (1,9,26)             -5.00000000E-05
     4      (1,17,35)            -5.00000000E-05
     5      (1,33,35)            -5.00000000E-05
     6      (1,26,26)            -5.00000000E-05
     7      (1,41,26)            -5.00000000E-05
     8      (1,4,39)             -5.00000000E-05
     9      (1,27,3)             -5.00000000E-05
     10     (1,46,46)            -5.00000000E-05
 -----------------------------------------------




 WEL PACKAGE (WEL2) FLOW RATES   PERIOD      2   STEP      128
 -----------------------------------------------
   NUMBER   CELLID                    RATE      
 -----------------------------------------------
     1      (1,17,26)             2.50000000E-04
     2      (1,33,26)             2.50000000E-04
 -----------------------------------------------




 HEAD WILL BE SAVED ON UNIT 1028 AT END OF TIME STEP  128, STRESS PERIOD    2


  VOLUME BUDGET FOR ENTIRE MODEL AT END OF TIME STEP  128, STRESS PERIOD   2
  ---------------------------------------------------------------------------------------------------

     CUMULATIVE VOLUME      L**3       RATES FOR THIS TIME STEP      L**3/T          PACKAGE NAME    
     ------------------                 ------------------------                     ----------------

           IN:                                      IN:
           ---                                      ---
              STO-SS =           0.0000                STO-SS =           0.0000     STORAGE                          
                 WEL =           0.0000                   WEL =           0.0000     WEL1                             
                 WEL =           0.2280                   WEL =       5.0000E-04     WEL2                             

            TOTAL IN =           0.2280              TOTAL IN =       5.0000E-04

          OUT:                                     OUT:
          ----                                     ----
              STO-SS =           0.0000                STO-SS =           0.0000     STORAGE                          
                 WEL =           0.2280                   WEL =       5.0000E-04     WEL1                             
                 WEL =           0.0000                   WEL =           0.0000     WEL2                             

           TOTAL OUT =           0.2280             TOTAL OUT =       5.0000E-04

            IN - OUT =       4.0000E-11              IN - OUT =      -1.0842E-19

 PERCENT DISCREPANCY =           0.00     PERCENT DISCREPANCY =          -0.00




         TIME SUMMARY AT END OF TIME STEP  128 IN STRESS PERIOD    2
                    SECONDS     MINUTES      HOURS       DAYS        YEARS
                    -----------------------------------------------------------
   TIME STEP LENGTH 1.72800E+05  2880.0      48.000      2.0000     5.47570E-03
 STRESS PERIOD TIME 2.21184E+07 3.68640E+05  6144.0      256.00     0.70089    
         TOTAL TIME 3.93984E+07 6.56640E+05  10944.      456.00      1.2485    


end timestep


start timestep kper="2" kstp="129" mode="normal"

 UBDSV1 SAVING           STO-SS ON UNIT   1027 AT TIME STEP    129, STRESS PERIOD      2
 UBDSV1 SAVING     FLOW-JA-FACE ON UNIT   1027 AT TIME STEP    129, STRESS PERIOD      2

 WEL PACKAGE (WEL1) FLOW RATES   PERIOD      2   STEP      129
 -----------------------------------------------
   NUMBER   CELLID                    RATE      
 -----------------------------------------------
     1      (1,17,17)            -5.00000000E-05
     2      (1,33,17)            -5.00000000E-05
     3      (1,9,26)             -5.00000000E-05
     4      (1,17,35)            -5.00000000E-05
     5      (1,33,35)            -5.00000000E-05
     6      (1,26,26)            -5.00000000E-05
     7      (1,41,26)            -5.00000000E-05
     8      (1,4,39)             -5.00000000E-05
     9      (1,27,3)             -5.00000000E-05
     10     (1,46,46)            -5.00000000E-05
 -----------------------------------------------




 WEL PACKAGE (WEL2) FLOW RATES   PERIOD      2   STEP      129
 -----------------------------------------------
   NUMBER   CELLID                    RATE      
 -----------------------------------------------
     1      (1,17,26)             2.50000000E-04
     2      (1,33,26)             2.50000000E-04
 -----------------------------------------------




 HEAD WILL BE SAVED ON UNIT 1028 AT END OF TIME STEP  129, STRESS PERIOD    2


  VOLUME BUDGET FOR ENTIRE MODEL AT END OF TIME STEP  129, STRESS PERIOD   2
  ---------------------------------------------------------------------------------------------------

     CUMULATIVE VOLUME      L**3       RATES FOR THIS TIME STEP      L**3/T          PACKAGE NAME    
     ------------------                 ------------------------                     ----------------

           IN:                                      IN:
           ---                                      ---
              STO-SS =           0.0000                STO-SS =           0.0000     STORAGE                          
                 WEL =           0.0000                   WEL =           0.0000     WEL1                             
                 WEL =           0.2290                   WEL =       5.0000E-04     WEL2                             

            TOTAL IN =           0.2290              TOTAL IN =       5.0000E-04

          OUT:                                     OUT:
          ----                                     ----
              STO-SS =           0.0000                STO-SS =           0.0000     STORAGE                          
                 WEL =           0.2290                   WEL =       5.0000E-04     WEL1                             
                 WEL =           0.0000                   WEL =           0.0000     WEL2                             

           TOTAL OUT =           0.2290             TOTAL OUT =       5.0000E-04

            IN - OUT =       4.0000E-11              IN - OUT =      -1.0842E-19

 PERCENT DISCREPANCY =           0.00     PERCENT DISCREPANCY =          -0.00




         TIME SUMMARY AT END OF TIME STEP  129 IN STRESS PERIOD    2
                    SECONDS     MINUTES      HOURS       DAYS        YEARS
                    -----------------------------------------------------------
   TIME STEP LENGTH 1.72800E+05  2880.0      48.000      2.0000     5.47570E-03
 STRESS PERIOD TIME 2.22912E+07 3.71520E+05  6192.0      258.00     0.70637    
         TOTAL TIME 3.95712E+07 6.59520E+05  10992.      458.00      1.2539    


end timestep


start timestep kper="2" kstp="130" mode="normal"

 UBDSV1 SAVING           STO-SS ON UNIT   1027 AT TIME STEP    130, STRESS PERIOD      2
 UBDSV1 SAVING     FLOW-JA-FACE ON UNIT   1027 AT TIME STEP    130, STRESS PERIOD      2

 WEL PACKAGE (WEL1) FLOW RATES   PERIOD      2   STEP      130
 -----------------------------------------------
   NUMBER   CELLID                    RATE      
 -----------------------------------------------
     1      (1,17,17)            -5.00000000E-05
     2      (1,33,17)            -5.00000000E-05
     3      (1,9,26)             -5.00000000E-05
     4      (1,17,35)            -5.00000000E-05
     5      (1,33,35)            -5.00000000E-05
     6      (1,26,26)            -5.00000000E-05
     7      (1,41,26)            -5.00000000E-05
     8      (1,4,39)             -5.00000000E-05
     9      (1,27,3)             -5.00000000E-05
     10     (1,46,46)            -5.00000000E-05
 -----------------------------------------------




 WEL PACKAGE (WEL2) FLOW RATES   PERIOD      2   STEP      130
 -----------------------------------------------
   NUMBER   CELLID                    RATE      
 -----------------------------------------------
     1      (1,17,26)             2.50000000E-04
     2      (1,33,26)             2.50000000E-04
 -----------------------------------------------




 HEAD WILL BE SAVED ON UNIT 1028 AT END OF TIME STEP  130, STRESS PERIOD    2


  VOLUME BUDGET FOR ENTIRE MODEL AT END OF TIME STEP  130, STRESS PERIOD   2
  ---------------------------------------------------------------------------------------------------

     CUMULATIVE VOLUME      L**3       RATES FOR THIS TIME STEP      L**3/T          PACKAGE NAME    
     ------------------                 ------------------------                     ----------------

           IN:                                      IN:
           ---                                      ---
              STO-SS =           0.0000                STO-SS =           0.0000     STORAGE                          
                 WEL =           0.0000                   WEL =           0.0000     WEL1                             
                 WEL =           0.2300                   WEL =       5.0000E-04     WEL2                             

            TOTAL IN =           0.2300              TOTAL IN =       5.0000E-04

          OUT:                                     OUT:
          ----                                     ----
              STO-SS =           0.0000                STO-SS =           0.0000     STORAGE                          
                 WEL =           0.2300                   WEL =       5.0000E-04     WEL1                             
                 WEL =           0.0000                   WEL =           0.0000     WEL2                             

           TOTAL OUT =           0.2300             TOTAL OUT =       5.0000E-04

            IN - OUT =       4.0000E-11              IN - OUT =      -1.0842E-19

 PERCENT DISCREPANCY =           0.00     PERCENT DISCREPANCY =          -0.00




         TIME SUMMARY AT END OF TIME STEP  130 IN STRESS PERIOD    2
                    SECONDS     MINUTES      HOURS       DAYS        YEARS
                    -----------------------------------------------------------
   TIME STEP LENGTH 1.72800E+05  2880.0      48.000      2.0000     5.47570E-03
 STRESS PERIOD TIME 2.24640E+07 3.74400E+05  6240.0      260.00     0.71184    
         TOTAL TIME 3.97440E+07 6.62400E+05  11040.      460.00      1.2594    


end timestep


start timestep kper="2" kstp="131" mode="normal"

 UBDSV1 SAVING           STO-SS ON UNIT   1027 AT TIME STEP    131, STRESS PERIOD      2
 UBDSV1 SAVING     FLOW-JA-FACE ON UNIT   1027 AT TIME STEP    131, STRESS PERIOD      2

 WEL PACKAGE (WEL1) FLOW RATES   PERIOD      2   STEP      131
 -----------------------------------------------
   NUMBER   CELLID                    RATE      
 -----------------------------------------------
     1      (1,17,17)            -5.00000000E-05
     2      (1,33,17)            -5.00000000E-05
     3      (1,9,26)             -5.00000000E-05
     4      (1,17,35)            -5.00000000E-05
     5      (1,33,35)            -5.00000000E-05
     6      (1,26,26)            -5.00000000E-05
     7      (1,41,26)            -5.00000000E-05
     8      (1,4,39)             -5.00000000E-05
     9      (1,27,3)             -5.00000000E-05
     10     (1,46,46)            -5.00000000E-05
 -----------------------------------------------




 WEL PACKAGE (WEL2) FLOW RATES   PERIOD      2   STEP      131
 -----------------------------------------------
   NUMBER   CELLID                    RATE      
 -----------------------------------------------
     1      (1,17,26)             2.50000000E-04
     2      (1,33,26)             2.50000000E-04
 -----------------------------------------------




 HEAD WILL BE SAVED ON UNIT 1028 AT END OF TIME STEP  131, STRESS PERIOD    2


  VOLUME BUDGET FOR ENTIRE MODEL AT END OF TIME STEP  131, STRESS PERIOD   2
  ---------------------------------------------------------------------------------------------------

     CUMULATIVE VOLUME      L**3       RATES FOR THIS TIME STEP      L**3/T          PACKAGE NAME    
     ------------------                 ------------------------                     ----------------

           IN:                                      IN:
           ---                                      ---
              STO-SS =           0.0000                STO-SS =           0.0000     STORAGE                          
                 WEL =           0.0000                   WEL =           0.0000     WEL1                             
                 WEL =           0.2310                   WEL =       5.0000E-04     WEL2                             

            TOTAL IN =           0.2310              TOTAL IN =       5.0000E-04

          OUT:                                     OUT:
          ----                                     ----
              STO-SS =           0.0000                STO-SS =           0.0000     STORAGE                          
                 WEL =           0.2310                   WEL =       5.0000E-04     WEL1                             
                 WEL =           0.0000                   WEL =           0.0000     WEL2                             

           TOTAL OUT =           0.2310             TOTAL OUT =       5.0000E-04

            IN - OUT =       4.0000E-11              IN - OUT =      -1.0842E-19

 PERCENT DISCREPANCY =           0.00     PERCENT DISCREPANCY =          -0.00




         TIME SUMMARY AT END OF TIME STEP  131 IN STRESS PERIOD    2
                    SECONDS     MINUTES      HOURS       DAYS        YEARS
                    -----------------------------------------------------------
   TIME STEP LENGTH 1.72800E+05  2880.0      48.000      2.0000     5.47570E-03
 STRESS PERIOD TIME 2.26368E+07 3.77280E+05  6288.0      262.00     0.71732    
         TOTAL TIME 3.99168E+07 6.65280E+05  11088.      462.00      1.2649    


end timestep


start timestep kper="2" kstp="132" mode="normal"

 UBDSV1 SAVING           STO-SS ON UNIT   1027 AT TIME STEP    132, STRESS PERIOD      2
 UBDSV1 SAVING     FLOW-JA-FACE ON UNIT   1027 AT TIME STEP    132, STRESS PERIOD      2

 WEL PACKAGE (WEL1) FLOW RATES   PERIOD      2   STEP      132
 -----------------------------------------------
   NUMBER   CELLID                    RATE      
 -----------------------------------------------
     1      (1,17,17)            -5.00000000E-05
     2      (1,33,17)            -5.00000000E-05
     3      (1,9,26)             -5.00000000E-05
     4      (1,17,35)            -5.00000000E-05
     5      (1,33,35)            -5.00000000E-05
     6      (1,26,26)            -5.00000000E-05
     7      (1,41,26)            -5.00000000E-05
     8      (1,4,39)             -5.00000000E-05
     9      (1,27,3)             -5.00000000E-05
     10     (1,46,46)            -5.00000000E-05
 -----------------------------------------------




 WEL PACKAGE (WEL2) FLOW RATES   PERIOD      2   STEP      132
 -----------------------------------------------
   NUMBER   CELLID                    RATE      
 -----------------------------------------------
     1      (1,17,26)             2.50000000E-04
     2      (1,33,26)             2.50000000E-04
 -----------------------------------------------




 HEAD WILL BE SAVED ON UNIT 1028 AT END OF TIME STEP  132, STRESS PERIOD    2


  VOLUME BUDGET FOR ENTIRE MODEL AT END OF TIME STEP  132, STRESS PERIOD   2
  ---------------------------------------------------------------------------------------------------

     CUMULATIVE VOLUME      L**3       RATES FOR THIS TIME STEP      L**3/T          PACKAGE NAME    
     ------------------                 ------------------------                     ----------------

           IN:                                      IN:
           ---                                      ---
              STO-SS =           0.0000                STO-SS =           0.0000     STORAGE                          
                 WEL =           0.0000                   WEL =           0.0000     WEL1                             
                 WEL =           0.2320                   WEL =       5.0000E-04     WEL2                             

            TOTAL IN =           0.2320              TOTAL IN =       5.0000E-04

          OUT:                                     OUT:
          ----                                     ----
              STO-SS =           0.0000                STO-SS =           0.0000     STORAGE                          
                 WEL =           0.2320                   WEL =       5.0000E-04     WEL1                             
                 WEL =           0.0000                   WEL =           0.0000     WEL2                             

           TOTAL OUT =           0.2320             TOTAL OUT =       5.0000E-04

            IN - OUT =       4.0000E-11              IN - OUT =      -1.0842E-19

 PERCENT DISCREPANCY =           0.00     PERCENT DISCREPANCY =          -0.00




         TIME SUMMARY AT END OF TIME STEP  132 IN STRESS PERIOD    2
                    SECONDS     MINUTES      HOURS       DAYS        YEARS
                    -----------------------------------------------------------
   TIME STEP LENGTH 1.72800E+05  2880.0      48.000      2.0000     5.47570E-03
 STRESS PERIOD TIME 2.28096E+07 3.80160E+05  6336.0      264.00     0.72279    
         TOTAL TIME 4.00896E+07 6.68160E+05  11136.      464.00      1.2704    


end timestep


start timestep kper="2" kstp="133" mode="normal"

 UBDSV1 SAVING           STO-SS ON UNIT   1027 AT TIME STEP    133, STRESS PERIOD      2
 UBDSV1 SAVING     FLOW-JA-FACE ON UNIT   1027 AT TIME STEP    133, STRESS PERIOD      2

 WEL PACKAGE (WEL1) FLOW RATES   PERIOD      2   STEP      133
 -----------------------------------------------
   NUMBER   CELLID                    RATE      
 -----------------------------------------------
     1      (1,17,17)            -5.00000000E-05
     2      (1,33,17)            -5.00000000E-05
     3      (1,9,26)             -5.00000000E-05
     4      (1,17,35)            -5.00000000E-05
     5      (1,33,35)            -5.00000000E-05
     6      (1,26,26)            -5.00000000E-05
     7      (1,41,26)            -5.00000000E-05
     8      (1,4,39)             -5.00000000E-05
     9      (1,27,3)             -5.00000000E-05
     10     (1,46,46)            -5.00000000E-05
 -----------------------------------------------




 WEL PACKAGE (WEL2) FLOW RATES   PERIOD      2   STEP      133
 -----------------------------------------------
   NUMBER   CELLID                    RATE      
 -----------------------------------------------
     1      (1,17,26)             2.50000000E-04
     2      (1,33,26)             2.50000000E-04
 -----------------------------------------------




 HEAD WILL BE SAVED ON UNIT 1028 AT END OF TIME STEP  133, STRESS PERIOD    2


  VOLUME BUDGET FOR ENTIRE MODEL AT END OF TIME STEP  133, STRESS PERIOD   2
  ---------------------------------------------------------------------------------------------------

     CUMULATIVE VOLUME      L**3       RATES FOR THIS TIME STEP      L**3/T          PACKAGE NAME    
     ------------------                 ------------------------                     ----------------

           IN:                                      IN:
           ---                                      ---
              STO-SS =           0.0000                STO-SS =           0.0000     STORAGE                          
                 WEL =           0.0000                   WEL =           0.0000     WEL1                             
                 WEL =           0.2330                   WEL =       5.0000E-04     WEL2                             

            TOTAL IN =           0.2330              TOTAL IN =       5.0000E-04

          OUT:                                     OUT:
          ----                                     ----
              STO-SS =           0.0000                STO-SS =           0.0000     STORAGE                          
                 WEL =           0.2330                   WEL =       5.0000E-04     WEL1                             
                 WEL =           0.0000                   WEL =           0.0000     WEL2                             

           TOTAL OUT =           0.2330             TOTAL OUT =       5.0000E-04

            IN - OUT =       4.0000E-11              IN - OUT =      -1.0842E-19

 PERCENT DISCREPANCY =           0.00     PERCENT DISCREPANCY =          -0.00




         TIME SUMMARY AT END OF TIME STEP  133 IN STRESS PERIOD    2
                    SECONDS     MINUTES      HOURS       DAYS        YEARS
                    -----------------------------------------------------------
   TIME STEP LENGTH 1.72800E+05  2880.0      48.000      2.0000     5.47570E-03
 STRESS PERIOD TIME 2.29824E+07 3.83040E+05  6384.0      266.00     0.72827    
         TOTAL TIME 4.02624E+07 6.71040E+05  11184.      466.00      1.2758    


end timestep


start timestep kper="2" kstp="134" mode="normal"

 UBDSV1 SAVING           STO-SS ON UNIT   1027 AT TIME STEP    134, STRESS PERIOD      2
 UBDSV1 SAVING     FLOW-JA-FACE ON UNIT   1027 AT TIME STEP    134, STRESS PERIOD      2

 WEL PACKAGE (WEL1) FLOW RATES   PERIOD      2   STEP      134
 -----------------------------------------------
   NUMBER   CELLID                    RATE      
 -----------------------------------------------
     1      (1,17,17)            -5.00000000E-05
     2      (1,33,17)            -5.00000000E-05
     3      (1,9,26)             -5.00000000E-05
     4      (1,17,35)            -5.00000000E-05
     5      (1,33,35)            -5.00000000E-05
     6      (1,26,26)            -5.00000000E-05
     7      (1,41,26)            -5.00000000E-05
     8      (1,4,39)             -5.00000000E-05
     9      (1,27,3)             -5.00000000E-05
     10     (1,46,46)            -5.00000000E-05
 -----------------------------------------------




 WEL PACKAGE (WEL2) FLOW RATES   PERIOD      2   STEP      134
 -----------------------------------------------
   NUMBER   CELLID                    RATE      
 -----------------------------------------------
     1      (1,17,26)             2.50000000E-04
     2      (1,33,26)             2.50000000E-04
 -----------------------------------------------




 HEAD WILL BE SAVED ON UNIT 1028 AT END OF TIME STEP  134, STRESS PERIOD    2


  VOLUME BUDGET FOR ENTIRE MODEL AT END OF TIME STEP  134, STRESS PERIOD   2
  ---------------------------------------------------------------------------------------------------

     CUMULATIVE VOLUME      L**3       RATES FOR THIS TIME STEP      L**3/T          PACKAGE NAME    
     ------------------                 ------------------------                     ----------------

           IN:                                      IN:
           ---                                      ---
              STO-SS =           0.0000                STO-SS =           0.0000     STORAGE                          
                 WEL =           0.0000                   WEL =           0.0000     WEL1                             
                 WEL =           0.2340                   WEL =       5.0000E-04     WEL2                             

            TOTAL IN =           0.2340              TOTAL IN =       5.0000E-04

          OUT:                                     OUT:
          ----                                     ----
              STO-SS =           0.0000                STO-SS =           0.0000     STORAGE                          
                 WEL =           0.2340                   WEL =       5.0000E-04     WEL1                             
                 WEL =           0.0000                   WEL =           0.0000     WEL2                             

           TOTAL OUT =           0.2340             TOTAL OUT =       5.0000E-04

            IN - OUT =       4.0000E-11              IN - OUT =      -1.0842E-19

 PERCENT DISCREPANCY =           0.00     PERCENT DISCREPANCY =          -0.00




         TIME SUMMARY AT END OF TIME STEP  134 IN STRESS PERIOD    2
                    SECONDS     MINUTES      HOURS       DAYS        YEARS
                    -----------------------------------------------------------
   TIME STEP LENGTH 1.72800E+05  2880.0      48.000      2.0000     5.47570E-03
 STRESS PERIOD TIME 2.31552E+07 3.85920E+05  6432.0      268.00     0.73374    
         TOTAL TIME 4.04352E+07 6.73920E+05  11232.      468.00      1.2813    


end timestep


start timestep kper="2" kstp="135" mode="normal"

 UBDSV1 SAVING           STO-SS ON UNIT   1027 AT TIME STEP    135, STRESS PERIOD      2
 UBDSV1 SAVING     FLOW-JA-FACE ON UNIT   1027 AT TIME STEP    135, STRESS PERIOD      2

 WEL PACKAGE (WEL1) FLOW RATES   PERIOD      2   STEP      135
 -----------------------------------------------
   NUMBER   CELLID                    RATE      
 -----------------------------------------------
     1      (1,17,17)            -5.00000000E-05
     2      (1,33,17)            -5.00000000E-05
     3      (1,9,26)             -5.00000000E-05
     4      (1,17,35)            -5.00000000E-05
     5      (1,33,35)            -5.00000000E-05
     6      (1,26,26)            -5.00000000E-05
     7      (1,41,26)            -5.00000000E-05
     8      (1,4,39)             -5.00000000E-05
     9      (1,27,3)             -5.00000000E-05
     10     (1,46,46)            -5.00000000E-05
 -----------------------------------------------




 WEL PACKAGE (WEL2) FLOW RATES   PERIOD      2   STEP      135
 -----------------------------------------------
   NUMBER   CELLID                    RATE      
 -----------------------------------------------
     1      (1,17,26)             2.50000000E-04
     2      (1,33,26)             2.50000000E-04
 -----------------------------------------------




 HEAD WILL BE SAVED ON UNIT 1028 AT END OF TIME STEP  135, STRESS PERIOD    2


  VOLUME BUDGET FOR ENTIRE MODEL AT END OF TIME STEP  135, STRESS PERIOD   2
  ---------------------------------------------------------------------------------------------------

     CUMULATIVE VOLUME      L**3       RATES FOR THIS TIME STEP      L**3/T          PACKAGE NAME    
     ------------------                 ------------------------                     ----------------

           IN:                                      IN:
           ---                                      ---
              STO-SS =           0.0000                STO-SS =           0.0000     STORAGE                          
                 WEL =           0.0000                   WEL =           0.0000     WEL1                             
                 WEL =           0.2350                   WEL =       5.0000E-04     WEL2                             

            TOTAL IN =           0.2350              TOTAL IN =       5.0000E-04

          OUT:                                     OUT:
          ----                                     ----
              STO-SS =           0.0000                STO-SS =           0.0000     STORAGE                          
                 WEL =           0.2350                   WEL =       5.0000E-04     WEL1                             
                 WEL =           0.0000                   WEL =           0.0000     WEL2                             

           TOTAL OUT =           0.2350             TOTAL OUT =       5.0000E-04

            IN - OUT =       4.0000E-11              IN - OUT =      -1.0842E-19

 PERCENT DISCREPANCY =           0.00     PERCENT DISCREPANCY =          -0.00




         TIME SUMMARY AT END OF TIME STEP  135 IN STRESS PERIOD    2
                    SECONDS     MINUTES      HOURS       DAYS        YEARS
                    -----------------------------------------------------------
   TIME STEP LENGTH 1.72800E+05  2880.0      48.000      2.0000     5.47570E-03
 STRESS PERIOD TIME 2.33280E+07 3.88800E+05  6480.0      270.00     0.73922    
         TOTAL TIME 4.06080E+07 6.76800E+05  11280.      470.00      1.2868    


end timestep


start timestep kper="2" kstp="136" mode="normal"

 UBDSV1 SAVING           STO-SS ON UNIT   1027 AT TIME STEP    136, STRESS PERIOD      2
 UBDSV1 SAVING     FLOW-JA-FACE ON UNIT   1027 AT TIME STEP    136, STRESS PERIOD      2

 WEL PACKAGE (WEL1) FLOW RATES   PERIOD      2   STEP      136
 -----------------------------------------------
   NUMBER   CELLID                    RATE      
 -----------------------------------------------
     1      (1,17,17)            -5.00000000E-05
     2      (1,33,17)            -5.00000000E-05
     3      (1,9,26)             -5.00000000E-05
     4      (1,17,35)            -5.00000000E-05
     5      (1,33,35)            -5.00000000E-05
     6      (1,26,26)            -5.00000000E-05
     7      (1,41,26)            -5.00000000E-05
     8      (1,4,39)             -5.00000000E-05
     9      (1,27,3)             -5.00000000E-05
     10     (1,46,46)            -5.00000000E-05
 -----------------------------------------------




 WEL PACKAGE (WEL2) FLOW RATES   PERIOD      2   STEP      136
 -----------------------------------------------
   NUMBER   CELLID                    RATE      
 -----------------------------------------------
     1      (1,17,26)             2.50000000E-04
     2      (1,33,26)             2.50000000E-04
 -----------------------------------------------




 HEAD WILL BE SAVED ON UNIT 1028 AT END OF TIME STEP  136, STRESS PERIOD    2


  VOLUME BUDGET FOR ENTIRE MODEL AT END OF TIME STEP  136, STRESS PERIOD   2
  ---------------------------------------------------------------------------------------------------

     CUMULATIVE VOLUME      L**3       RATES FOR THIS TIME STEP      L**3/T          PACKAGE NAME    
     ------------------                 ------------------------                     ----------------

           IN:                                      IN:
           ---                                      ---
              STO-SS =           0.0000                STO-SS =           0.0000     STORAGE                          
                 WEL =           0.0000                   WEL =           0.0000     WEL1                             
                 WEL =           0.2360                   WEL =       5.0000E-04     WEL2                             

            TOTAL IN =           0.2360              TOTAL IN =       5.0000E-04

          OUT:                                     OUT:
          ----                                     ----
              STO-SS =           0.0000                STO-SS =           0.0000     STORAGE                          
                 WEL =           0.2360                   WEL =       5.0000E-04     WEL1                             
                 WEL =           0.0000                   WEL =           0.0000     WEL2                             

           TOTAL OUT =           0.2360             TOTAL OUT =       5.0000E-04

            IN - OUT =       4.0000E-11              IN - OUT =      -1.0842E-19

 PERCENT DISCREPANCY =           0.00     PERCENT DISCREPANCY =          -0.00




         TIME SUMMARY AT END OF TIME STEP  136 IN STRESS PERIOD    2
                    SECONDS     MINUTES      HOURS       DAYS        YEARS
                    -----------------------------------------------------------
   TIME STEP LENGTH 1.72800E+05  2880.0      48.000      2.0000     5.47570E-03
 STRESS PERIOD TIME 2.35008E+07 3.91680E+05  6528.0      272.00     0.74470    
         TOTAL TIME 4.07808E+07 6.79680E+05  11328.      472.00      1.2923    


end timestep


start timestep kper="2" kstp="137" mode="normal"

 UBDSV1 SAVING           STO-SS ON UNIT   1027 AT TIME STEP    137, STRESS PERIOD      2
 UBDSV1 SAVING     FLOW-JA-FACE ON UNIT   1027 AT TIME STEP    137, STRESS PERIOD      2

 WEL PACKAGE (WEL1) FLOW RATES   PERIOD      2   STEP      137
 -----------------------------------------------
   NUMBER   CELLID                    RATE      
 -----------------------------------------------
     1      (1,17,17)            -5.00000000E-05
     2      (1,33,17)            -5.00000000E-05
     3      (1,9,26)             -5.00000000E-05
     4      (1,17,35)            -5.00000000E-05
     5      (1,33,35)            -5.00000000E-05
     6      (1,26,26)            -5.00000000E-05
     7      (1,41,26)            -5.00000000E-05
     8      (1,4,39)             -5.00000000E-05
     9      (1,27,3)             -5.00000000E-05
     10     (1,46,46)            -5.00000000E-05
 -----------------------------------------------




 WEL PACKAGE (WEL2) FLOW RATES   PERIOD      2   STEP      137
 -----------------------------------------------
   NUMBER   CELLID                    RATE      
 -----------------------------------------------
     1      (1,17,26)             2.50000000E-04
     2      (1,33,26)             2.50000000E-04
 -----------------------------------------------




 HEAD WILL BE SAVED ON UNIT 1028 AT END OF TIME STEP  137, STRESS PERIOD    2


  VOLUME BUDGET FOR ENTIRE MODEL AT END OF TIME STEP  137, STRESS PERIOD   2
  ---------------------------------------------------------------------------------------------------

     CUMULATIVE VOLUME      L**3       RATES FOR THIS TIME STEP      L**3/T          PACKAGE NAME    
     ------------------                 ------------------------                     ----------------

           IN:                                      IN:
           ---                                      ---
              STO-SS =           0.0000                STO-SS =           0.0000     STORAGE                          
                 WEL =           0.0000                   WEL =           0.0000     WEL1                             
                 WEL =           0.2370                   WEL =       5.0000E-04     WEL2                             

            TOTAL IN =           0.2370              TOTAL IN =       5.0000E-04

          OUT:                                     OUT:
          ----                                     ----
              STO-SS =           0.0000                STO-SS =           0.0000     STORAGE                          
                 WEL =           0.2370                   WEL =       5.0000E-04     WEL1                             
                 WEL =           0.0000                   WEL =           0.0000     WEL2                             

           TOTAL OUT =           0.2370             TOTAL OUT =       5.0000E-04

            IN - OUT =       4.0000E-11              IN - OUT =      -1.0842E-19

 PERCENT DISCREPANCY =           0.00     PERCENT DISCREPANCY =          -0.00




         TIME SUMMARY AT END OF TIME STEP  137 IN STRESS PERIOD    2
                    SECONDS     MINUTES      HOURS       DAYS        YEARS
                    -----------------------------------------------------------
   TIME STEP LENGTH 1.72800E+05  2880.0      48.000      2.0000     5.47570E-03
 STRESS PERIOD TIME 2.36736E+07 3.94560E+05  6576.0      274.00     0.75017    
         TOTAL TIME 4.09536E+07 6.82560E+05  11376.      474.00      1.2977    


end timestep


start timestep kper="2" kstp="138" mode="normal"

 UBDSV1 SAVING           STO-SS ON UNIT   1027 AT TIME STEP    138, STRESS PERIOD      2
 UBDSV1 SAVING     FLOW-JA-FACE ON UNIT   1027 AT TIME STEP    138, STRESS PERIOD      2

 WEL PACKAGE (WEL1) FLOW RATES   PERIOD      2   STEP      138
 -----------------------------------------------
   NUMBER   CELLID                    RATE      
 -----------------------------------------------
     1      (1,17,17)            -5.00000000E-05
     2      (1,33,17)            -5.00000000E-05
     3      (1,9,26)             -5.00000000E-05
     4      (1,17,35)            -5.00000000E-05
     5      (1,33,35)            -5.00000000E-05
     6      (1,26,26)            -5.00000000E-05
     7      (1,41,26)            -5.00000000E-05
     8      (1,4,39)             -5.00000000E-05
     9      (1,27,3)             -5.00000000E-05
     10     (1,46,46)            -5.00000000E-05
 -----------------------------------------------




 WEL PACKAGE (WEL2) FLOW RATES   PERIOD      2   STEP      138
 -----------------------------------------------
   NUMBER   CELLID                    RATE      
 -----------------------------------------------
     1      (1,17,26)             2.50000000E-04
     2      (1,33,26)             2.50000000E-04
 -----------------------------------------------




 HEAD WILL BE SAVED ON UNIT 1028 AT END OF TIME STEP  138, STRESS PERIOD    2


  VOLUME BUDGET FOR ENTIRE MODEL AT END OF TIME STEP  138, STRESS PERIOD   2
  ---------------------------------------------------------------------------------------------------

     CUMULATIVE VOLUME      L**3       RATES FOR THIS TIME STEP      L**3/T          PACKAGE NAME    
     ------------------                 ------------------------                     ----------------

           IN:                                      IN:
           ---                                      ---
              STO-SS =           0.0000                STO-SS =           0.0000     STORAGE                          
                 WEL =           0.0000                   WEL =           0.0000     WEL1                             
                 WEL =           0.2380                   WEL =       5.0000E-04     WEL2                             

            TOTAL IN =           0.2380              TOTAL IN =       5.0000E-04

          OUT:                                     OUT:
          ----                                     ----
              STO-SS =           0.0000                STO-SS =           0.0000     STORAGE                          
                 WEL =           0.2380                   WEL =       5.0000E-04     WEL1                             
                 WEL =           0.0000                   WEL =           0.0000     WEL2                             

           TOTAL OUT =           0.2380             TOTAL OUT =       5.0000E-04

            IN - OUT =       4.0000E-11              IN - OUT =      -1.0842E-19

 PERCENT DISCREPANCY =           0.00     PERCENT DISCREPANCY =          -0.00




         TIME SUMMARY AT END OF TIME STEP  138 IN STRESS PERIOD    2
                    SECONDS     MINUTES      HOURS       DAYS        YEARS
                    -----------------------------------------------------------
   TIME STEP LENGTH 1.72800E+05  2880.0      48.000      2.0000     5.47570E-03
 STRESS PERIOD TIME 2.38464E+07 3.97440E+05  6624.0      276.00     0.75565    
         TOTAL TIME 4.11264E+07 6.85440E+05  11424.      476.00      1.3032    


end timestep


start timestep kper="2" kstp="139" mode="normal"

 UBDSV1 SAVING           STO-SS ON UNIT   1027 AT TIME STEP    139, STRESS PERIOD      2
 UBDSV1 SAVING     FLOW-JA-FACE ON UNIT   1027 AT TIME STEP    139, STRESS PERIOD      2

 WEL PACKAGE (WEL1) FLOW RATES   PERIOD      2   STEP      139
 -----------------------------------------------
   NUMBER   CELLID                    RATE      
 -----------------------------------------------
     1      (1,17,17)            -5.00000000E-05
     2      (1,33,17)            -5.00000000E-05
     3      (1,9,26)             -5.00000000E-05
     4      (1,17,35)            -5.00000000E-05
     5      (1,33,35)            -5.00000000E-05
     6      (1,26,26)            -5.00000000E-05
     7      (1,41,26)            -5.00000000E-05
     8      (1,4,39)             -5.00000000E-05
     9      (1,27,3)             -5.00000000E-05
     10     (1,46,46)            -5.00000000E-05
 -----------------------------------------------




 WEL PACKAGE (WEL2) FLOW RATES   PERIOD      2   STEP      139
 -----------------------------------------------
   NUMBER   CELLID                    RATE      
 -----------------------------------------------
     1      (1,17,26)             2.50000000E-04
     2      (1,33,26)             2.50000000E-04
 -----------------------------------------------




 HEAD WILL BE SAVED ON UNIT 1028 AT END OF TIME STEP  139, STRESS PERIOD    2


  VOLUME BUDGET FOR ENTIRE MODEL AT END OF TIME STEP  139, STRESS PERIOD   2
  ---------------------------------------------------------------------------------------------------

     CUMULATIVE VOLUME      L**3       RATES FOR THIS TIME STEP      L**3/T          PACKAGE NAME    
     ------------------                 ------------------------                     ----------------

           IN:                                      IN:
           ---                                      ---
              STO-SS =           0.0000                STO-SS =           0.0000     STORAGE                          
                 WEL =           0.0000                   WEL =           0.0000     WEL1                             
                 WEL =           0.2390                   WEL =       5.0000E-04     WEL2                             

            TOTAL IN =           0.2390              TOTAL IN =       5.0000E-04

          OUT:                                     OUT:
          ----                                     ----
              STO-SS =           0.0000                STO-SS =           0.0000     STORAGE                          
                 WEL =           0.2390                   WEL =       5.0000E-04     WEL1                             
                 WEL =           0.0000                   WEL =           0.0000     WEL2                             

           TOTAL OUT =           0.2390             TOTAL OUT =       5.0000E-04

            IN - OUT =       4.0000E-11              IN - OUT =      -1.0842E-19

 PERCENT DISCREPANCY =           0.00     PERCENT DISCREPANCY =          -0.00




         TIME SUMMARY AT END OF TIME STEP  139 IN STRESS PERIOD    2
                    SECONDS     MINUTES      HOURS       DAYS        YEARS
                    -----------------------------------------------------------
   TIME STEP LENGTH 1.72800E+05  2880.0      48.000      2.0000     5.47570E-03
 STRESS PERIOD TIME 2.40192E+07 4.00320E+05  6672.0      278.00     0.76112    
         TOTAL TIME 4.12992E+07 6.88320E+05  11472.      478.00      1.3087    


end timestep


start timestep kper="2" kstp="140" mode="normal"

 UBDSV1 SAVING           STO-SS ON UNIT   1027 AT TIME STEP    140, STRESS PERIOD      2
 UBDSV1 SAVING     FLOW-JA-FACE ON UNIT   1027 AT TIME STEP    140, STRESS PERIOD      2

 WEL PACKAGE (WEL1) FLOW RATES   PERIOD      2   STEP      140
 -----------------------------------------------
   NUMBER   CELLID                    RATE      
 -----------------------------------------------
     1      (1,17,17)            -5.00000000E-05
     2      (1,33,17)            -5.00000000E-05
     3      (1,9,26)             -5.00000000E-05
     4      (1,17,35)            -5.00000000E-05
     5      (1,33,35)            -5.00000000E-05
     6      (1,26,26)            -5.00000000E-05
     7      (1,41,26)            -5.00000000E-05
     8      (1,4,39)             -5.00000000E-05
     9      (1,27,3)             -5.00000000E-05
     10     (1,46,46)            -5.00000000E-05
 -----------------------------------------------




 WEL PACKAGE (WEL2) FLOW RATES   PERIOD      2   STEP      140
 -----------------------------------------------
   NUMBER   CELLID                    RATE      
 -----------------------------------------------
     1      (1,17,26)             2.50000000E-04
     2      (1,33,26)             2.50000000E-04
 -----------------------------------------------




 HEAD WILL BE SAVED ON UNIT 1028 AT END OF TIME STEP  140, STRESS PERIOD    2


  VOLUME BUDGET FOR ENTIRE MODEL AT END OF TIME STEP  140, STRESS PERIOD   2
  ---------------------------------------------------------------------------------------------------

     CUMULATIVE VOLUME      L**3       RATES FOR THIS TIME STEP      L**3/T          PACKAGE NAME    
     ------------------                 ------------------------                     ----------------

           IN:                                      IN:
           ---                                      ---
              STO-SS =           0.0000                STO-SS =           0.0000     STORAGE                          
                 WEL =           0.0000                   WEL =           0.0000     WEL1                             
                 WEL =           0.2400                   WEL =       5.0000E-04     WEL2                             

            TOTAL IN =           0.2400              TOTAL IN =       5.0000E-04

          OUT:                                     OUT:
          ----                                     ----
              STO-SS =           0.0000                STO-SS =           0.0000     STORAGE                          
                 WEL =           0.2400                   WEL =       5.0000E-04     WEL1                             
                 WEL =           0.0000                   WEL =           0.0000     WEL2                             

           TOTAL OUT =           0.2400             TOTAL OUT =       5.0000E-04

            IN - OUT =       4.0000E-11              IN - OUT =      -1.0842E-19

 PERCENT DISCREPANCY =           0.00     PERCENT DISCREPANCY =          -0.00




         TIME SUMMARY AT END OF TIME STEP  140 IN STRESS PERIOD    2
                    SECONDS     MINUTES      HOURS       DAYS        YEARS
                    -----------------------------------------------------------
   TIME STEP LENGTH 1.72800E+05  2880.0      48.000      2.0000     5.47570E-03
 STRESS PERIOD TIME 2.41920E+07 4.03200E+05  6720.0      280.00     0.76660    
         TOTAL TIME 4.14720E+07 6.91200E+05  11520.      480.00      1.3142    


end timestep


start timestep kper="2" kstp="141" mode="normal"

 UBDSV1 SAVING           STO-SS ON UNIT   1027 AT TIME STEP    141, STRESS PERIOD      2
 UBDSV1 SAVING     FLOW-JA-FACE ON UNIT   1027 AT TIME STEP    141, STRESS PERIOD      2

 WEL PACKAGE (WEL1) FLOW RATES   PERIOD      2   STEP      141
 -----------------------------------------------
   NUMBER   CELLID                    RATE      
 -----------------------------------------------
     1      (1,17,17)            -5.00000000E-05
     2      (1,33,17)            -5.00000000E-05
     3      (1,9,26)             -5.00000000E-05
     4      (1,17,35)            -5.00000000E-05
     5      (1,33,35)            -5.00000000E-05
     6      (1,26,26)            -5.00000000E-05
     7      (1,41,26)            -5.00000000E-05
     8      (1,4,39)             -5.00000000E-05
     9      (1,27,3)             -5.00000000E-05
     10     (1,46,46)            -5.00000000E-05
 -----------------------------------------------




 WEL PACKAGE (WEL2) FLOW RATES   PERIOD      2   STEP      141
 -----------------------------------------------
   NUMBER   CELLID                    RATE      
 -----------------------------------------------
     1      (1,17,26)             2.50000000E-04
     2      (1,33,26)             2.50000000E-04
 -----------------------------------------------




 HEAD WILL BE SAVED ON UNIT 1028 AT END OF TIME STEP  141, STRESS PERIOD    2


  VOLUME BUDGET FOR ENTIRE MODEL AT END OF TIME STEP  141, STRESS PERIOD   2
  ---------------------------------------------------------------------------------------------------

     CUMULATIVE VOLUME      L**3       RATES FOR THIS TIME STEP      L**3/T          PACKAGE NAME    
     ------------------                 ------------------------                     ----------------

           IN:                                      IN:
           ---                                      ---
              STO-SS =           0.0000                STO-SS =           0.0000     STORAGE                          
                 WEL =           0.0000                   WEL =           0.0000     WEL1                             
                 WEL =           0.2410                   WEL =       5.0000E-04     WEL2                             

            TOTAL IN =           0.2410              TOTAL IN =       5.0000E-04

          OUT:                                     OUT:
          ----                                     ----
              STO-SS =           0.0000                STO-SS =           0.0000     STORAGE                          
                 WEL =           0.2410                   WEL =       5.0000E-04     WEL1                             
                 WEL =           0.0000                   WEL =           0.0000     WEL2                             

           TOTAL OUT =           0.2410             TOTAL OUT =       5.0000E-04

            IN - OUT =       4.0000E-11              IN - OUT =      -1.0842E-19

 PERCENT DISCREPANCY =           0.00     PERCENT DISCREPANCY =          -0.00




         TIME SUMMARY AT END OF TIME STEP  141 IN STRESS PERIOD    2
                    SECONDS     MINUTES      HOURS       DAYS        YEARS
                    -----------------------------------------------------------
   TIME STEP LENGTH 1.72800E+05  2880.0      48.000      2.0000     5.47570E-03
 STRESS PERIOD TIME 2.43648E+07 4.06080E+05  6768.0      282.00     0.77207    
         TOTAL TIME 4.16448E+07 6.94080E+05  11568.      482.00      1.3196    


end timestep


start timestep kper="2" kstp="142" mode="normal"

 UBDSV1 SAVING           STO-SS ON UNIT   1027 AT TIME STEP    142, STRESS PERIOD      2
 UBDSV1 SAVING     FLOW-JA-FACE ON UNIT   1027 AT TIME STEP    142, STRESS PERIOD      2

 WEL PACKAGE (WEL1) FLOW RATES   PERIOD      2   STEP      142
 -----------------------------------------------
   NUMBER   CELLID                    RATE      
 -----------------------------------------------
     1      (1,17,17)            -5.00000000E-05
     2      (1,33,17)            -5.00000000E-05
     3      (1,9,26)             -5.00000000E-05
     4      (1,17,35)            -5.00000000E-05
     5      (1,33,35)            -5.00000000E-05
     6      (1,26,26)            -5.00000000E-05
     7      (1,41,26)            -5.00000000E-05
     8      (1,4,39)             -5.00000000E-05
     9      (1,27,3)             -5.00000000E-05
     10     (1,46,46)            -5.00000000E-05
 -----------------------------------------------




 WEL PACKAGE (WEL2) FLOW RATES   PERIOD      2   STEP      142
 -----------------------------------------------
   NUMBER   CELLID                    RATE      
 -----------------------------------------------
     1      (1,17,26)             2.50000000E-04
     2      (1,33,26)             2.50000000E-04
 -----------------------------------------------




 HEAD WILL BE SAVED ON UNIT 1028 AT END OF TIME STEP  142, STRESS PERIOD    2


  VOLUME BUDGET FOR ENTIRE MODEL AT END OF TIME STEP  142, STRESS PERIOD   2
  ---------------------------------------------------------------------------------------------------

     CUMULATIVE VOLUME      L**3       RATES FOR THIS TIME STEP      L**3/T          PACKAGE NAME    
     ------------------                 ------------------------                     ----------------

           IN:                                      IN:
           ---                                      ---
              STO-SS =           0.0000                STO-SS =           0.0000     STORAGE                          
                 WEL =           0.0000                   WEL =           0.0000     WEL1                             
                 WEL =           0.2420                   WEL =       5.0000E-04     WEL2                             

            TOTAL IN =           0.2420              TOTAL IN =       5.0000E-04

          OUT:                                     OUT:
          ----                                     ----
              STO-SS =           0.0000                STO-SS =           0.0000     STORAGE                          
                 WEL =           0.2420                   WEL =       5.0000E-04     WEL1                             
                 WEL =           0.0000                   WEL =           0.0000     WEL2                             

           TOTAL OUT =           0.2420             TOTAL OUT =       5.0000E-04

            IN - OUT =       4.0000E-11              IN - OUT =      -1.0842E-19

 PERCENT DISCREPANCY =           0.00     PERCENT DISCREPANCY =          -0.00




         TIME SUMMARY AT END OF TIME STEP  142 IN STRESS PERIOD    2
                    SECONDS     MINUTES      HOURS       DAYS        YEARS
                    -----------------------------------------------------------
   TIME STEP LENGTH 1.72800E+05  2880.0      48.000      2.0000     5.47570E-03
 STRESS PERIOD TIME 2.45376E+07 4.08960E+05  6816.0      284.00     0.77755    
         TOTAL TIME 4.18176E+07 6.96960E+05  11616.      484.00      1.3251    


end timestep


start timestep kper="2" kstp="143" mode="normal"

 UBDSV1 SAVING           STO-SS ON UNIT   1027 AT TIME STEP    143, STRESS PERIOD      2
 UBDSV1 SAVING     FLOW-JA-FACE ON UNIT   1027 AT TIME STEP    143, STRESS PERIOD      2

 WEL PACKAGE (WEL1) FLOW RATES   PERIOD      2   STEP      143
 -----------------------------------------------
   NUMBER   CELLID                    RATE      
 -----------------------------------------------
     1      (1,17,17)            -5.00000000E-05
     2      (1,33,17)            -5.00000000E-05
     3      (1,9,26)             -5.00000000E-05
     4      (1,17,35)            -5.00000000E-05
     5      (1,33,35)            -5.00000000E-05
     6      (1,26,26)            -5.00000000E-05
     7      (1,41,26)            -5.00000000E-05
     8      (1,4,39)             -5.00000000E-05
     9      (1,27,3)             -5.00000000E-05
     10     (1,46,46)            -5.00000000E-05
 -----------------------------------------------




 WEL PACKAGE (WEL2) FLOW RATES   PERIOD      2   STEP      143
 -----------------------------------------------
   NUMBER   CELLID                    RATE      
 -----------------------------------------------
     1      (1,17,26)             2.50000000E-04
     2      (1,33,26)             2.50000000E-04
 -----------------------------------------------




 HEAD WILL BE SAVED ON UNIT 1028 AT END OF TIME STEP  143, STRESS PERIOD    2


  VOLUME BUDGET FOR ENTIRE MODEL AT END OF TIME STEP  143, STRESS PERIOD   2
  ---------------------------------------------------------------------------------------------------

     CUMULATIVE VOLUME      L**3       RATES FOR THIS TIME STEP      L**3/T          PACKAGE NAME    
     ------------------                 ------------------------                     ----------------

           IN:                                      IN:
           ---                                      ---
              STO-SS =           0.0000                STO-SS =           0.0000     STORAGE                          
                 WEL =           0.0000                   WEL =           0.0000     WEL1                             
                 WEL =           0.2430                   WEL =       5.0000E-04     WEL2                             

            TOTAL IN =           0.2430              TOTAL IN =       5.0000E-04

          OUT:                                     OUT:
          ----                                     ----
              STO-SS =           0.0000                STO-SS =           0.0000     STORAGE                          
                 WEL =           0.2430                   WEL =       5.0000E-04     WEL1                             
                 WEL =           0.0000                   WEL =           0.0000     WEL2                             

           TOTAL OUT =           0.2430             TOTAL OUT =       5.0000E-04

            IN - OUT =       4.0000E-11              IN - OUT =      -1.0842E-19

 PERCENT DISCREPANCY =           0.00     PERCENT DISCREPANCY =          -0.00




         TIME SUMMARY AT END OF TIME STEP  143 IN STRESS PERIOD    2
                    SECONDS     MINUTES      HOURS       DAYS        YEARS
                    -----------------------------------------------------------
   TIME STEP LENGTH 1.72800E+05  2880.0      48.000      2.0000     5.47570E-03
 STRESS PERIOD TIME 2.47104E+07 4.11840E+05  6864.0      286.00     0.78303    
         TOTAL TIME 4.19904E+07 6.99840E+05  11664.      486.00      1.3306    


end timestep


start timestep kper="2" kstp="144" mode="normal"

 UBDSV1 SAVING           STO-SS ON UNIT   1027 AT TIME STEP    144, STRESS PERIOD      2
 UBDSV1 SAVING     FLOW-JA-FACE ON UNIT   1027 AT TIME STEP    144, STRESS PERIOD      2

 WEL PACKAGE (WEL1) FLOW RATES   PERIOD      2   STEP      144
 -----------------------------------------------
   NUMBER   CELLID                    RATE      
 -----------------------------------------------
     1      (1,17,17)            -5.00000000E-05
     2      (1,33,17)            -5.00000000E-05
     3      (1,9,26)             -5.00000000E-05
     4      (1,17,35)            -5.00000000E-05
     5      (1,33,35)            -5.00000000E-05
     6      (1,26,26)            -5.00000000E-05
     7      (1,41,26)            -5.00000000E-05
     8      (1,4,39)             -5.00000000E-05
     9      (1,27,3)             -5.00000000E-05
     10     (1,46,46)            -5.00000000E-05
 -----------------------------------------------




 WEL PACKAGE (WEL2) FLOW RATES   PERIOD      2   STEP      144
 -----------------------------------------------
   NUMBER   CELLID                    RATE      
 -----------------------------------------------
     1      (1,17,26)             2.50000000E-04
     2      (1,33,26)             2.50000000E-04
 -----------------------------------------------




 HEAD WILL BE SAVED ON UNIT 1028 AT END OF TIME STEP  144, STRESS PERIOD    2


  VOLUME BUDGET FOR ENTIRE MODEL AT END OF TIME STEP  144, STRESS PERIOD   2
  ---------------------------------------------------------------------------------------------------

     CUMULATIVE VOLUME      L**3       RATES FOR THIS TIME STEP      L**3/T          PACKAGE NAME    
     ------------------                 ------------------------                     ----------------

           IN:                                      IN:
           ---                                      ---
              STO-SS =           0.0000                STO-SS =           0.0000     STORAGE                          
                 WEL =           0.0000                   WEL =           0.0000     WEL1                             
                 WEL =           0.2440                   WEL =       5.0000E-04     WEL2                             

            TOTAL IN =           0.2440              TOTAL IN =       5.0000E-04

          OUT:                                     OUT:
          ----                                     ----
              STO-SS =           0.0000                STO-SS =           0.0000     STORAGE                          
                 WEL =           0.2440                   WEL =       5.0000E-04     WEL1                             
                 WEL =           0.0000                   WEL =           0.0000     WEL2                             

           TOTAL OUT =           0.2440             TOTAL OUT =       5.0000E-04

            IN - OUT =       4.0000E-11              IN - OUT =      -1.0842E-19

 PERCENT DISCREPANCY =           0.00     PERCENT DISCREPANCY =          -0.00




         TIME SUMMARY AT END OF TIME STEP  144 IN STRESS PERIOD    2
                    SECONDS     MINUTES      HOURS       DAYS        YEARS
                    -----------------------------------------------------------
   TIME STEP LENGTH 1.72800E+05  2880.0      48.000      2.0000     5.47570E-03
 STRESS PERIOD TIME 2.48832E+07 4.14720E+05  6912.0      288.00     0.78850    
         TOTAL TIME 4.21632E+07 7.02720E+05  11712.      488.00      1.3361    


end timestep


start timestep kper="2" kstp="145" mode="normal"

 UBDSV1 SAVING           STO-SS ON UNIT   1027 AT TIME STEP    145, STRESS PERIOD      2
 UBDSV1 SAVING     FLOW-JA-FACE ON UNIT   1027 AT TIME STEP    145, STRESS PERIOD      2

 WEL PACKAGE (WEL1) FLOW RATES   PERIOD      2   STEP      145
 -----------------------------------------------
   NUMBER   CELLID                    RATE      
 -----------------------------------------------
     1      (1,17,17)            -5.00000000E-05
     2      (1,33,17)            -5.00000000E-05
     3      (1,9,26)             -5.00000000E-05
     4      (1,17,35)            -5.00000000E-05
     5      (1,33,35)            -5.00000000E-05
     6      (1,26,26)            -5.00000000E-05
     7      (1,41,26)            -5.00000000E-05
     8      (1,4,39)             -5.00000000E-05
     9      (1,27,3)             -5.00000000E-05
     10     (1,46,46)            -5.00000000E-05
 -----------------------------------------------




 WEL PACKAGE (WEL2) FLOW RATES   PERIOD      2   STEP      145
 -----------------------------------------------
   NUMBER   CELLID                    RATE      
 -----------------------------------------------
     1      (1,17,26)             2.50000000E-04
     2      (1,33,26)             2.50000000E-04
 -----------------------------------------------




 HEAD WILL BE SAVED ON UNIT 1028 AT END OF TIME STEP  145, STRESS PERIOD    2


  VOLUME BUDGET FOR ENTIRE MODEL AT END OF TIME STEP  145, STRESS PERIOD   2
  ---------------------------------------------------------------------------------------------------

     CUMULATIVE VOLUME      L**3       RATES FOR THIS TIME STEP      L**3/T          PACKAGE NAME    
     ------------------                 ------------------------                     ----------------

           IN:                                      IN:
           ---                                      ---
              STO-SS =           0.0000                STO-SS =           0.0000     STORAGE                          
                 WEL =           0.0000                   WEL =           0.0000     WEL1                             
                 WEL =           0.2450                   WEL =       5.0000E-04     WEL2                             

            TOTAL IN =           0.2450              TOTAL IN =       5.0000E-04

          OUT:                                     OUT:
          ----                                     ----
              STO-SS =           0.0000                STO-SS =           0.0000     STORAGE                          
                 WEL =           0.2450                   WEL =       5.0000E-04     WEL1                             
                 WEL =           0.0000                   WEL =           0.0000     WEL2                             

           TOTAL OUT =           0.2450             TOTAL OUT =       5.0000E-04

            IN - OUT =       4.0000E-11              IN - OUT =      -1.0842E-19

 PERCENT DISCREPANCY =           0.00     PERCENT DISCREPANCY =          -0.00




         TIME SUMMARY AT END OF TIME STEP  145 IN STRESS PERIOD    2
                    SECONDS     MINUTES      HOURS       DAYS        YEARS
                    -----------------------------------------------------------
   TIME STEP LENGTH 1.72800E+05  2880.0      48.000      2.0000     5.47570E-03
 STRESS PERIOD TIME 2.50560E+07 4.17600E+05  6960.0      290.00     0.79398    
         TOTAL TIME 4.23360E+07 7.05600E+05  11760.      490.00      1.3415    


end timestep


start timestep kper="2" kstp="146" mode="normal"

 UBDSV1 SAVING           STO-SS ON UNIT   1027 AT TIME STEP    146, STRESS PERIOD      2
 UBDSV1 SAVING     FLOW-JA-FACE ON UNIT   1027 AT TIME STEP    146, STRESS PERIOD      2

 WEL PACKAGE (WEL1) FLOW RATES   PERIOD      2   STEP      146
 -----------------------------------------------
   NUMBER   CELLID                    RATE      
 -----------------------------------------------
     1      (1,17,17)            -5.00000000E-05
     2      (1,33,17)            -5.00000000E-05
     3      (1,9,26)             -5.00000000E-05
     4      (1,17,35)            -5.00000000E-05
     5      (1,33,35)            -5.00000000E-05
     6      (1,26,26)            -5.00000000E-05
     7      (1,41,26)            -5.00000000E-05
     8      (1,4,39)             -5.00000000E-05
     9      (1,27,3)             -5.00000000E-05
     10     (1,46,46)            -5.00000000E-05
 -----------------------------------------------




 WEL PACKAGE (WEL2) FLOW RATES   PERIOD      2   STEP      146
 -----------------------------------------------
   NUMBER   CELLID                    RATE      
 -----------------------------------------------
     1      (1,17,26)             2.50000000E-04
     2      (1,33,26)             2.50000000E-04
 -----------------------------------------------




 HEAD WILL BE SAVED ON UNIT 1028 AT END OF TIME STEP  146, STRESS PERIOD    2


  VOLUME BUDGET FOR ENTIRE MODEL AT END OF TIME STEP  146, STRESS PERIOD   2
  ---------------------------------------------------------------------------------------------------

     CUMULATIVE VOLUME      L**3       RATES FOR THIS TIME STEP      L**3/T          PACKAGE NAME    
     ------------------                 ------------------------                     ----------------

           IN:                                      IN:
           ---                                      ---
              STO-SS =           0.0000                STO-SS =           0.0000     STORAGE                          
                 WEL =           0.0000                   WEL =           0.0000     WEL1                             
                 WEL =           0.2460                   WEL =       5.0000E-04     WEL2                             

            TOTAL IN =           0.2460              TOTAL IN =       5.0000E-04

          OUT:                                     OUT:
          ----                                     ----
              STO-SS =           0.0000                STO-SS =           0.0000     STORAGE                          
                 WEL =           0.2460                   WEL =       5.0000E-04     WEL1                             
                 WEL =           0.0000                   WEL =           0.0000     WEL2                             

           TOTAL OUT =           0.2460             TOTAL OUT =       5.0000E-04

            IN - OUT =       4.0000E-11              IN - OUT =      -1.0842E-19

 PERCENT DISCREPANCY =           0.00     PERCENT DISCREPANCY =          -0.00




         TIME SUMMARY AT END OF TIME STEP  146 IN STRESS PERIOD    2
                    SECONDS     MINUTES      HOURS       DAYS        YEARS
                    -----------------------------------------------------------
   TIME STEP LENGTH 1.72800E+05  2880.0      48.000      2.0000     5.47570E-03
 STRESS PERIOD TIME 2.52288E+07 4.20480E+05  7008.0      292.00     0.79945    
         TOTAL TIME 4.25088E+07 7.08480E+05  11808.      492.00      1.3470    


end timestep


start timestep kper="2" kstp="147" mode="normal"

 UBDSV1 SAVING           STO-SS ON UNIT   1027 AT TIME STEP    147, STRESS PERIOD      2
 UBDSV1 SAVING     FLOW-JA-FACE ON UNIT   1027 AT TIME STEP    147, STRESS PERIOD      2

 WEL PACKAGE (WEL1) FLOW RATES   PERIOD      2   STEP      147
 -----------------------------------------------
   NUMBER   CELLID                    RATE      
 -----------------------------------------------
     1      (1,17,17)            -5.00000000E-05
     2      (1,33,17)            -5.00000000E-05
     3      (1,9,26)             -5.00000000E-05
     4      (1,17,35)            -5.00000000E-05
     5      (1,33,35)            -5.00000000E-05
     6      (1,26,26)            -5.00000000E-05
     7      (1,41,26)            -5.00000000E-05
     8      (1,4,39)             -5.00000000E-05
     9      (1,27,3)             -5.00000000E-05
     10     (1,46,46)            -5.00000000E-05
 -----------------------------------------------




 WEL PACKAGE (WEL2) FLOW RATES   PERIOD      2   STEP      147
 -----------------------------------------------
   NUMBER   CELLID                    RATE      
 -----------------------------------------------
     1      (1,17,26)             2.50000000E-04
     2      (1,33,26)             2.50000000E-04
 -----------------------------------------------




 HEAD WILL BE SAVED ON UNIT 1028 AT END OF TIME STEP  147, STRESS PERIOD    2


  VOLUME BUDGET FOR ENTIRE MODEL AT END OF TIME STEP  147, STRESS PERIOD   2
  ---------------------------------------------------------------------------------------------------

     CUMULATIVE VOLUME      L**3       RATES FOR THIS TIME STEP      L**3/T          PACKAGE NAME    
     ------------------                 ------------------------                     ----------------

           IN:                                      IN:
           ---                                      ---
              STO-SS =           0.0000                STO-SS =           0.0000     STORAGE                          
                 WEL =           0.0000                   WEL =           0.0000     WEL1                             
                 WEL =           0.2470                   WEL =       5.0000E-04     WEL2                             

            TOTAL IN =           0.2470              TOTAL IN =       5.0000E-04

          OUT:                                     OUT:
          ----                                     ----
              STO-SS =           0.0000                STO-SS =           0.0000     STORAGE                          
                 WEL =           0.2470                   WEL =       5.0000E-04     WEL1                             
                 WEL =           0.0000                   WEL =           0.0000     WEL2                             

           TOTAL OUT =           0.2470             TOTAL OUT =       5.0000E-04

            IN - OUT =       4.0000E-11              IN - OUT =      -1.0842E-19

 PERCENT DISCREPANCY =           0.00     PERCENT DISCREPANCY =          -0.00




         TIME SUMMARY AT END OF TIME STEP  147 IN STRESS PERIOD    2
                    SECONDS     MINUTES      HOURS       DAYS        YEARS
                    -----------------------------------------------------------
   TIME STEP LENGTH 1.72800E+05  2880.0      48.000      2.0000     5.47570E-03
 STRESS PERIOD TIME 2.54016E+07 4.23360E+05  7056.0      294.00     0.80493    
         TOTAL TIME 4.26816E+07 7.11360E+05  11856.      494.00      1.3525    


end timestep


start timestep kper="2" kstp="148" mode="normal"

 UBDSV1 SAVING           STO-SS ON UNIT   1027 AT TIME STEP    148, STRESS PERIOD      2
 UBDSV1 SAVING     FLOW-JA-FACE ON UNIT   1027 AT TIME STEP    148, STRESS PERIOD      2

 WEL PACKAGE (WEL1) FLOW RATES   PERIOD      2   STEP      148
 -----------------------------------------------
   NUMBER   CELLID                    RATE      
 -----------------------------------------------
     1      (1,17,17)            -5.00000000E-05
     2      (1,33,17)            -5.00000000E-05
     3      (1,9,26)             -5.00000000E-05
     4      (1,17,35)            -5.00000000E-05
     5      (1,33,35)            -5.00000000E-05
     6      (1,26,26)            -5.00000000E-05
     7      (1,41,26)            -5.00000000E-05
     8      (1,4,39)             -5.00000000E-05
     9      (1,27,3)             -5.00000000E-05
     10     (1,46,46)            -5.00000000E-05
 -----------------------------------------------




 WEL PACKAGE (WEL2) FLOW RATES   PERIOD      2   STEP      148
 -----------------------------------------------
   NUMBER   CELLID                    RATE      
 -----------------------------------------------
     1      (1,17,26)             2.50000000E-04
     2      (1,33,26)             2.50000000E-04
 -----------------------------------------------




 HEAD WILL BE SAVED ON UNIT 1028 AT END OF TIME STEP  148, STRESS PERIOD    2


  VOLUME BUDGET FOR ENTIRE MODEL AT END OF TIME STEP  148, STRESS PERIOD   2
  ---------------------------------------------------------------------------------------------------

     CUMULATIVE VOLUME      L**3       RATES FOR THIS TIME STEP      L**3/T          PACKAGE NAME    
     ------------------                 ------------------------                     ----------------

           IN:                                      IN:
           ---                                      ---
              STO-SS =           0.0000                STO-SS =           0.0000     STORAGE                          
                 WEL =           0.0000                   WEL =           0.0000     WEL1                             
                 WEL =           0.2480                   WEL =       5.0000E-04     WEL2                             

            TOTAL IN =           0.2480              TOTAL IN =       5.0000E-04

          OUT:                                     OUT:
          ----                                     ----
              STO-SS =           0.0000                STO-SS =           0.0000     STORAGE                          
                 WEL =           0.2480                   WEL =       5.0000E-04     WEL1                             
                 WEL =           0.0000                   WEL =           0.0000     WEL2                             

           TOTAL OUT =           0.2480             TOTAL OUT =       5.0000E-04

            IN - OUT =       4.0000E-11              IN - OUT =      -1.0842E-19

 PERCENT DISCREPANCY =           0.00     PERCENT DISCREPANCY =          -0.00




         TIME SUMMARY AT END OF TIME STEP  148 IN STRESS PERIOD    2
                    SECONDS     MINUTES      HOURS       DAYS        YEARS
                    -----------------------------------------------------------
   TIME STEP LENGTH 1.72800E+05  2880.0      48.000      2.0000     5.47570E-03
 STRESS PERIOD TIME 2.55744E+07 4.26240E+05  7104.0      296.00     0.81040    
         TOTAL TIME 4.28544E+07 7.14240E+05  11904.      496.00      1.3580    


end timestep


start timestep kper="2" kstp="149" mode="normal"

 UBDSV1 SAVING           STO-SS ON UNIT   1027 AT TIME STEP    149, STRESS PERIOD      2
 UBDSV1 SAVING     FLOW-JA-FACE ON UNIT   1027 AT TIME STEP    149, STRESS PERIOD      2

 WEL PACKAGE (WEL1) FLOW RATES   PERIOD      2   STEP      149
 -----------------------------------------------
   NUMBER   CELLID                    RATE      
 -----------------------------------------------
     1      (1,17,17)            -5.00000000E-05
     2      (1,33,17)            -5.00000000E-05
     3      (1,9,26)             -5.00000000E-05
     4      (1,17,35)            -5.00000000E-05
     5      (1,33,35)            -5.00000000E-05
     6      (1,26,26)            -5.00000000E-05
     7      (1,41,26)            -5.00000000E-05
     8      (1,4,39)             -5.00000000E-05
     9      (1,27,3)             -5.00000000E-05
     10     (1,46,46)            -5.00000000E-05
 -----------------------------------------------




 WEL PACKAGE (WEL2) FLOW RATES   PERIOD      2   STEP      149
 -----------------------------------------------
   NUMBER   CELLID                    RATE      
 -----------------------------------------------
     1      (1,17,26)             2.50000000E-04
     2      (1,33,26)             2.50000000E-04
 -----------------------------------------------




 HEAD WILL BE SAVED ON UNIT 1028 AT END OF TIME STEP  149, STRESS PERIOD    2


  VOLUME BUDGET FOR ENTIRE MODEL AT END OF TIME STEP  149, STRESS PERIOD   2
  ---------------------------------------------------------------------------------------------------

     CUMULATIVE VOLUME      L**3       RATES FOR THIS TIME STEP      L**3/T          PACKAGE NAME    
     ------------------                 ------------------------                     ----------------

           IN:                                      IN:
           ---                                      ---
              STO-SS =           0.0000                STO-SS =           0.0000     STORAGE                          
                 WEL =           0.0000                   WEL =           0.0000     WEL1                             
                 WEL =           0.2490                   WEL =       5.0000E-04     WEL2                             

            TOTAL IN =           0.2490              TOTAL IN =       5.0000E-04

          OUT:                                     OUT:
          ----                                     ----
              STO-SS =           0.0000                STO-SS =           0.0000     STORAGE                          
                 WEL =           0.2490                   WEL =       5.0000E-04     WEL1                             
                 WEL =           0.0000                   WEL =           0.0000     WEL2                             

           TOTAL OUT =           0.2490             TOTAL OUT =       5.0000E-04

            IN - OUT =       4.0000E-11              IN - OUT =      -1.0842E-19

 PERCENT DISCREPANCY =           0.00     PERCENT DISCREPANCY =          -0.00




         TIME SUMMARY AT END OF TIME STEP  149 IN STRESS PERIOD    2
                    SECONDS     MINUTES      HOURS       DAYS        YEARS
                    -----------------------------------------------------------
   TIME STEP LENGTH 1.72800E+05  2880.0      48.000      2.0000     5.47570E-03
 STRESS PERIOD TIME 2.57472E+07 4.29120E+05  7152.0      298.00     0.81588    
         TOTAL TIME 4.30272E+07 7.17120E+05  11952.      498.00      1.3634    


end timestep


start timestep kper="2" kstp="150" mode="normal"

 UBDSV1 SAVING           STO-SS ON UNIT   1027 AT TIME STEP    150, STRESS PERIOD      2
 UBDSV1 SAVING     FLOW-JA-FACE ON UNIT   1027 AT TIME STEP    150, STRESS PERIOD      2

 WEL PACKAGE (WEL1) FLOW RATES   PERIOD      2   STEP      150
 -----------------------------------------------
   NUMBER   CELLID                    RATE      
 -----------------------------------------------
     1      (1,17,17)            -5.00000000E-05
     2      (1,33,17)            -5.00000000E-05
     3      (1,9,26)             -5.00000000E-05
     4      (1,17,35)            -5.00000000E-05
     5      (1,33,35)            -5.00000000E-05
     6      (1,26,26)            -5.00000000E-05
     7      (1,41,26)            -5.00000000E-05
     8      (1,4,39)             -5.00000000E-05
     9      (1,27,3)             -5.00000000E-05
     10     (1,46,46)            -5.00000000E-05
 -----------------------------------------------




 WEL PACKAGE (WEL2) FLOW RATES   PERIOD      2   STEP      150
 -----------------------------------------------
   NUMBER   CELLID                    RATE      
 -----------------------------------------------
     1      (1,17,26)             2.50000000E-04
     2      (1,33,26)             2.50000000E-04
 -----------------------------------------------




 HEAD WILL BE SAVED ON UNIT 1028 AT END OF TIME STEP  150, STRESS PERIOD    2


  VOLUME BUDGET FOR ENTIRE MODEL AT END OF TIME STEP  150, STRESS PERIOD   2
  ---------------------------------------------------------------------------------------------------

     CUMULATIVE VOLUME      L**3       RATES FOR THIS TIME STEP      L**3/T          PACKAGE NAME    
     ------------------                 ------------------------                     ----------------

           IN:                                      IN:
           ---                                      ---
              STO-SS =           0.0000                STO-SS =           0.0000     STORAGE                          
                 WEL =           0.0000                   WEL =           0.0000     WEL1                             
                 WEL =           0.2500                   WEL =       5.0000E-04     WEL2                             

            TOTAL IN =           0.2500              TOTAL IN =       5.0000E-04

          OUT:                                     OUT:
          ----                                     ----
              STO-SS =           0.0000                STO-SS =           0.0000     STORAGE                          
                 WEL =           0.2500                   WEL =       5.0000E-04     WEL1                             
                 WEL =           0.0000                   WEL =           0.0000     WEL2                             

           TOTAL OUT =           0.2500             TOTAL OUT =       5.0000E-04

            IN - OUT =       4.0000E-11              IN - OUT =      -1.0842E-19

 PERCENT DISCREPANCY =           0.00     PERCENT DISCREPANCY =          -0.00




         TIME SUMMARY AT END OF TIME STEP  150 IN STRESS PERIOD    2
                    SECONDS     MINUTES      HOURS       DAYS        YEARS
                    -----------------------------------------------------------
   TIME STEP LENGTH 1.72800E+05  2880.0      48.000      2.0000     5.47570E-03
 STRESS PERIOD TIME 2.59200E+07 4.32000E+05  7200.0      300.00     0.82136    
         TOTAL TIME 4.32000E+07 7.20000E+05  12000.      500.00      1.3689    


end timestep


start timestep kper="2" kstp="151" mode="normal"

 UBDSV1 SAVING           STO-SS ON UNIT   1027 AT TIME STEP    151, STRESS PERIOD      2
 UBDSV1 SAVING     FLOW-JA-FACE ON UNIT   1027 AT TIME STEP    151, STRESS PERIOD      2

 WEL PACKAGE (WEL1) FLOW RATES   PERIOD      2   STEP      151
 -----------------------------------------------
   NUMBER   CELLID                    RATE      
 -----------------------------------------------
     1      (1,17,17)            -5.00000000E-05
     2      (1,33,17)            -5.00000000E-05
     3      (1,9,26)             -5.00000000E-05
     4      (1,17,35)            -5.00000000E-05
     5      (1,33,35)            -5.00000000E-05
     6      (1,26,26)            -5.00000000E-05
     7      (1,41,26)            -5.00000000E-05
     8      (1,4,39)             -5.00000000E-05
     9      (1,27,3)             -5.00000000E-05
     10     (1,46,46)            -5.00000000E-05
 -----------------------------------------------




 WEL PACKAGE (WEL2) FLOW RATES   PERIOD      2   STEP      151
 -----------------------------------------------
   NUMBER   CELLID                    RATE      
 -----------------------------------------------
     1      (1,17,26)             2.50000000E-04
     2      (1,33,26)             2.50000000E-04
 -----------------------------------------------




 HEAD WILL BE SAVED ON UNIT 1028 AT END OF TIME STEP  151, STRESS PERIOD    2


  VOLUME BUDGET FOR ENTIRE MODEL AT END OF TIME STEP  151, STRESS PERIOD   2
  ---------------------------------------------------------------------------------------------------

     CUMULATIVE VOLUME      L**3       RATES FOR THIS TIME STEP      L**3/T          PACKAGE NAME    
     ------------------                 ------------------------                     ----------------

           IN:                                      IN:
           ---                                      ---
              STO-SS =           0.0000                STO-SS =           0.0000     STORAGE                          
                 WEL =           0.0000                   WEL =           0.0000     WEL1                             
                 WEL =           0.2510                   WEL =       5.0000E-04     WEL2                             

            TOTAL IN =           0.2510              TOTAL IN =       5.0000E-04

          OUT:                                     OUT:
          ----                                     ----
              STO-SS =           0.0000                STO-SS =           0.0000     STORAGE                          
                 WEL =           0.2510                   WEL =       5.0000E-04     WEL1                             
                 WEL =           0.0000                   WEL =           0.0000     WEL2                             

           TOTAL OUT =           0.2510             TOTAL OUT =       5.0000E-04

            IN - OUT =       4.0000E-11              IN - OUT =      -1.0842E-19

 PERCENT DISCREPANCY =           0.00     PERCENT DISCREPANCY =          -0.00




         TIME SUMMARY AT END OF TIME STEP  151 IN STRESS PERIOD    2
                    SECONDS     MINUTES      HOURS       DAYS        YEARS
                    -----------------------------------------------------------
   TIME STEP LENGTH 1.72800E+05  2880.0      48.000      2.0000     5.47570E-03
 STRESS PERIOD TIME 2.60928E+07 4.34880E+05  7248.0      302.00     0.82683    
         TOTAL TIME 4.33728E+07 7.22880E+05  12048.      502.00      1.3744    


end timestep


start timestep kper="2" kstp="152" mode="normal"

 UBDSV1 SAVING           STO-SS ON UNIT   1027 AT TIME STEP    152, STRESS PERIOD      2
 UBDSV1 SAVING     FLOW-JA-FACE ON UNIT   1027 AT TIME STEP    152, STRESS PERIOD      2

 WEL PACKAGE (WEL1) FLOW RATES   PERIOD      2   STEP      152
 -----------------------------------------------
   NUMBER   CELLID                    RATE      
 -----------------------------------------------
     1      (1,17,17)            -5.00000000E-05
     2      (1,33,17)            -5.00000000E-05
     3      (1,9,26)             -5.00000000E-05
     4      (1,17,35)            -5.00000000E-05
     5      (1,33,35)            -5.00000000E-05
     6      (1,26,26)            -5.00000000E-05
     7      (1,41,26)            -5.00000000E-05
     8      (1,4,39)             -5.00000000E-05
     9      (1,27,3)             -5.00000000E-05
     10     (1,46,46)            -5.00000000E-05
 -----------------------------------------------




 WEL PACKAGE (WEL2) FLOW RATES   PERIOD      2   STEP      152
 -----------------------------------------------
   NUMBER   CELLID                    RATE      
 -----------------------------------------------
     1      (1,17,26)             2.50000000E-04
     2      (1,33,26)             2.50000000E-04
 -----------------------------------------------




 HEAD WILL BE SAVED ON UNIT 1028 AT END OF TIME STEP  152, STRESS PERIOD    2


  VOLUME BUDGET FOR ENTIRE MODEL AT END OF TIME STEP  152, STRESS PERIOD   2
  ---------------------------------------------------------------------------------------------------

     CUMULATIVE VOLUME      L**3       RATES FOR THIS TIME STEP      L**3/T          PACKAGE NAME    
     ------------------                 ------------------------                     ----------------

           IN:                                      IN:
           ---                                      ---
              STO-SS =           0.0000                STO-SS =           0.0000     STORAGE                          
                 WEL =           0.0000                   WEL =           0.0000     WEL1                             
                 WEL =           0.2520                   WEL =       5.0000E-04     WEL2                             

            TOTAL IN =           0.2520              TOTAL IN =       5.0000E-04

          OUT:                                     OUT:
          ----                                     ----
              STO-SS =           0.0000                STO-SS =           0.0000     STORAGE                          
                 WEL =           0.2520                   WEL =       5.0000E-04     WEL1                             
                 WEL =           0.0000                   WEL =           0.0000     WEL2                             

           TOTAL OUT =           0.2520             TOTAL OUT =       5.0000E-04

            IN - OUT =       4.0000E-11              IN - OUT =      -1.0842E-19

 PERCENT DISCREPANCY =           0.00     PERCENT DISCREPANCY =          -0.00




         TIME SUMMARY AT END OF TIME STEP  152 IN STRESS PERIOD    2
                    SECONDS     MINUTES      HOURS       DAYS        YEARS
                    -----------------------------------------------------------
   TIME STEP LENGTH 1.72800E+05  2880.0      48.000      2.0000     5.47570E-03
 STRESS PERIOD TIME 2.62656E+07 4.37760E+05  7296.0      304.00     0.83231    
         TOTAL TIME 4.35456E+07 7.25760E+05  12096.      504.00      1.3799    


end timestep


start timestep kper="2" kstp="153" mode="normal"

 UBDSV1 SAVING           STO-SS ON UNIT   1027 AT TIME STEP    153, STRESS PERIOD      2
 UBDSV1 SAVING     FLOW-JA-FACE ON UNIT   1027 AT TIME STEP    153, STRESS PERIOD      2

 WEL PACKAGE (WEL1) FLOW RATES   PERIOD      2   STEP      153
 -----------------------------------------------
   NUMBER   CELLID                    RATE      
 -----------------------------------------------
     1      (1,17,17)            -5.00000000E-05
     2      (1,33,17)            -5.00000000E-05
     3      (1,9,26)             -5.00000000E-05
     4      (1,17,35)            -5.00000000E-05
     5      (1,33,35)            -5.00000000E-05
     6      (1,26,26)            -5.00000000E-05
     7      (1,41,26)            -5.00000000E-05
     8      (1,4,39)             -5.00000000E-05
     9      (1,27,3)             -5.00000000E-05
     10     (1,46,46)            -5.00000000E-05
 -----------------------------------------------




 WEL PACKAGE (WEL2) FLOW RATES   PERIOD      2   STEP      153
 -----------------------------------------------
   NUMBER   CELLID                    RATE      
 -----------------------------------------------
     1      (1,17,26)             2.50000000E-04
     2      (1,33,26)             2.50000000E-04
 -----------------------------------------------




 HEAD WILL BE SAVED ON UNIT 1028 AT END OF TIME STEP  153, STRESS PERIOD    2


  VOLUME BUDGET FOR ENTIRE MODEL AT END OF TIME STEP  153, STRESS PERIOD   2
  ---------------------------------------------------------------------------------------------------

     CUMULATIVE VOLUME      L**3       RATES FOR THIS TIME STEP      L**3/T          PACKAGE NAME    
     ------------------                 ------------------------                     ----------------

           IN:                                      IN:
           ---                                      ---
              STO-SS =           0.0000                STO-SS =           0.0000     STORAGE                          
                 WEL =           0.0000                   WEL =           0.0000     WEL1                             
                 WEL =           0.2530                   WEL =       5.0000E-04     WEL2                             

            TOTAL IN =           0.2530              TOTAL IN =       5.0000E-04

          OUT:                                     OUT:
          ----                                     ----
              STO-SS =           0.0000                STO-SS =           0.0000     STORAGE                          
                 WEL =           0.2530                   WEL =       5.0000E-04     WEL1                             
                 WEL =           0.0000                   WEL =           0.0000     WEL2                             

           TOTAL OUT =           0.2530             TOTAL OUT =       5.0000E-04

            IN - OUT =       4.0000E-11              IN - OUT =      -1.0842E-19

 PERCENT DISCREPANCY =           0.00     PERCENT DISCREPANCY =          -0.00




         TIME SUMMARY AT END OF TIME STEP  153 IN STRESS PERIOD    2
                    SECONDS     MINUTES      HOURS       DAYS        YEARS
                    -----------------------------------------------------------
   TIME STEP LENGTH 1.72800E+05  2880.0      48.000      2.0000     5.47570E-03
 STRESS PERIOD TIME 2.64384E+07 4.40640E+05  7344.0      306.00     0.83778    
         TOTAL TIME 4.37184E+07 7.28640E+05  12144.      506.00      1.3854    


end timestep


start timestep kper="2" kstp="154" mode="normal"

 UBDSV1 SAVING           STO-SS ON UNIT   1027 AT TIME STEP    154, STRESS PERIOD      2
 UBDSV1 SAVING     FLOW-JA-FACE ON UNIT   1027 AT TIME STEP    154, STRESS PERIOD      2

 WEL PACKAGE (WEL1) FLOW RATES   PERIOD      2   STEP      154
 -----------------------------------------------
   NUMBER   CELLID                    RATE      
 -----------------------------------------------
     1      (1,17,17)            -5.00000000E-05
     2      (1,33,17)            -5.00000000E-05
     3      (1,9,26)             -5.00000000E-05
     4      (1,17,35)            -5.00000000E-05
     5      (1,33,35)            -5.00000000E-05
     6      (1,26,26)            -5.00000000E-05
     7      (1,41,26)            -5.00000000E-05
     8      (1,4,39)             -5.00000000E-05
     9      (1,27,3)             -5.00000000E-05
     10     (1,46,46)            -5.00000000E-05
 -----------------------------------------------




 WEL PACKAGE (WEL2) FLOW RATES   PERIOD      2   STEP      154
 -----------------------------------------------
   NUMBER   CELLID                    RATE      
 -----------------------------------------------
     1      (1,17,26)             2.50000000E-04
     2      (1,33,26)             2.50000000E-04
 -----------------------------------------------




 HEAD WILL BE SAVED ON UNIT 1028 AT END OF TIME STEP  154, STRESS PERIOD    2


  VOLUME BUDGET FOR ENTIRE MODEL AT END OF TIME STEP  154, STRESS PERIOD   2
  ---------------------------------------------------------------------------------------------------

     CUMULATIVE VOLUME      L**3       RATES FOR THIS TIME STEP      L**3/T          PACKAGE NAME    
     ------------------                 ------------------------                     ----------------

           IN:                                      IN:
           ---                                      ---
              STO-SS =           0.0000                STO-SS =           0.0000     STORAGE                          
                 WEL =           0.0000                   WEL =           0.0000     WEL1                             
                 WEL =           0.2540                   WEL =       5.0000E-04     WEL2                             

            TOTAL IN =           0.2540              TOTAL IN =       5.0000E-04

          OUT:                                     OUT:
          ----                                     ----
              STO-SS =           0.0000                STO-SS =           0.0000     STORAGE                          
                 WEL =           0.2540                   WEL =       5.0000E-04     WEL1                             
                 WEL =           0.0000                   WEL =           0.0000     WEL2                             

           TOTAL OUT =           0.2540             TOTAL OUT =       5.0000E-04

            IN - OUT =       4.0000E-11              IN - OUT =      -1.0842E-19

 PERCENT DISCREPANCY =           0.00     PERCENT DISCREPANCY =          -0.00




         TIME SUMMARY AT END OF TIME STEP  154 IN STRESS PERIOD    2
                    SECONDS     MINUTES      HOURS       DAYS        YEARS
                    -----------------------------------------------------------
   TIME STEP LENGTH 1.72800E+05  2880.0      48.000      2.0000     5.47570E-03
 STRESS PERIOD TIME 2.66112E+07 4.43520E+05  7392.0      308.00     0.84326    
         TOTAL TIME 4.38912E+07 7.31520E+05  12192.      508.00      1.3908    


end timestep


start timestep kper="2" kstp="155" mode="normal"

 UBDSV1 SAVING           STO-SS ON UNIT   1027 AT TIME STEP    155, STRESS PERIOD      2
 UBDSV1 SAVING     FLOW-JA-FACE ON UNIT   1027 AT TIME STEP    155, STRESS PERIOD      2

 WEL PACKAGE (WEL1) FLOW RATES   PERIOD      2   STEP      155
 -----------------------------------------------
   NUMBER   CELLID                    RATE      
 -----------------------------------------------
     1      (1,17,17)            -5.00000000E-05
     2      (1,33,17)            -5.00000000E-05
     3      (1,9,26)             -5.00000000E-05
     4      (1,17,35)            -5.00000000E-05
     5      (1,33,35)            -5.00000000E-05
     6      (1,26,26)            -5.00000000E-05
     7      (1,41,26)            -5.00000000E-05
     8      (1,4,39)             -5.00000000E-05
     9      (1,27,3)             -5.00000000E-05
     10     (1,46,46)            -5.00000000E-05
 -----------------------------------------------




 WEL PACKAGE (WEL2) FLOW RATES   PERIOD      2   STEP      155
 -----------------------------------------------
   NUMBER   CELLID                    RATE      
 -----------------------------------------------
     1      (1,17,26)             2.50000000E-04
     2      (1,33,26)             2.50000000E-04
 -----------------------------------------------




 HEAD WILL BE SAVED ON UNIT 1028 AT END OF TIME STEP  155, STRESS PERIOD    2


  VOLUME BUDGET FOR ENTIRE MODEL AT END OF TIME STEP  155, STRESS PERIOD   2
  ---------------------------------------------------------------------------------------------------

     CUMULATIVE VOLUME      L**3       RATES FOR THIS TIME STEP      L**3/T          PACKAGE NAME    
     ------------------                 ------------------------                     ----------------

           IN:                                      IN:
           ---                                      ---
              STO-SS =           0.0000                STO-SS =           0.0000     STORAGE                          
                 WEL =           0.0000                   WEL =           0.0000     WEL1                             
                 WEL =           0.2550                   WEL =       5.0000E-04     WEL2                             

            TOTAL IN =           0.2550              TOTAL IN =       5.0000E-04

          OUT:                                     OUT:
          ----                                     ----
              STO-SS =           0.0000                STO-SS =           0.0000     STORAGE                          
                 WEL =           0.2550                   WEL =       5.0000E-04     WEL1                             
                 WEL =           0.0000                   WEL =           0.0000     WEL2                             

           TOTAL OUT =           0.2550             TOTAL OUT =       5.0000E-04

            IN - OUT =       4.0000E-11              IN - OUT =      -1.0842E-19

 PERCENT DISCREPANCY =           0.00     PERCENT DISCREPANCY =          -0.00




         TIME SUMMARY AT END OF TIME STEP  155 IN STRESS PERIOD    2
                    SECONDS     MINUTES      HOURS       DAYS        YEARS
                    -----------------------------------------------------------
   TIME STEP LENGTH 1.72800E+05  2880.0      48.000      2.0000     5.47570E-03
 STRESS PERIOD TIME 2.67840E+07 4.46400E+05  7440.0      310.00     0.84873    
         TOTAL TIME 4.40640E+07 7.34400E+05  12240.      510.00      1.3963    


end timestep


start timestep kper="2" kstp="156" mode="normal"

 UBDSV1 SAVING           STO-SS ON UNIT   1027 AT TIME STEP    156, STRESS PERIOD      2
 UBDSV1 SAVING     FLOW-JA-FACE ON UNIT   1027 AT TIME STEP    156, STRESS PERIOD      2

 WEL PACKAGE (WEL1) FLOW RATES   PERIOD      2   STEP      156
 -----------------------------------------------
   NUMBER   CELLID                    RATE      
 -----------------------------------------------
     1      (1,17,17)            -5.00000000E-05
     2      (1,33,17)            -5.00000000E-05
     3      (1,9,26)             -5.00000000E-05
     4      (1,17,35)            -5.00000000E-05
     5      (1,33,35)            -5.00000000E-05
     6      (1,26,26)            -5.00000000E-05
     7      (1,41,26)            -5.00000000E-05
     8      (1,4,39)             -5.00000000E-05
     9      (1,27,3)             -5.00000000E-05
     10     (1,46,46)            -5.00000000E-05
 -----------------------------------------------




 WEL PACKAGE (WEL2) FLOW RATES   PERIOD      2   STEP      156
 -----------------------------------------------
   NUMBER   CELLID                    RATE      
 -----------------------------------------------
     1      (1,17,26)             2.50000000E-04
     2      (1,33,26)             2.50000000E-04
 -----------------------------------------------




 HEAD WILL BE SAVED ON UNIT 1028 AT END OF TIME STEP  156, STRESS PERIOD    2


  VOLUME BUDGET FOR ENTIRE MODEL AT END OF TIME STEP  156, STRESS PERIOD   2
  ---------------------------------------------------------------------------------------------------

     CUMULATIVE VOLUME      L**3       RATES FOR THIS TIME STEP      L**3/T          PACKAGE NAME    
     ------------------                 ------------------------                     ----------------

           IN:                                      IN:
           ---                                      ---
              STO-SS =           0.0000                STO-SS =           0.0000     STORAGE                          
                 WEL =           0.0000                   WEL =           0.0000     WEL1                             
                 WEL =           0.2560                   WEL =       5.0000E-04     WEL2                             

            TOTAL IN =           0.2560              TOTAL IN =       5.0000E-04

          OUT:                                     OUT:
          ----                                     ----
              STO-SS =           0.0000                STO-SS =           0.0000     STORAGE                          
                 WEL =           0.2560                   WEL =       5.0000E-04     WEL1                             
                 WEL =           0.0000                   WEL =           0.0000     WEL2                             

           TOTAL OUT =           0.2560             TOTAL OUT =       5.0000E-04

            IN - OUT =       4.0000E-11              IN - OUT =      -1.0842E-19

 PERCENT DISCREPANCY =           0.00     PERCENT DISCREPANCY =          -0.00




         TIME SUMMARY AT END OF TIME STEP  156 IN STRESS PERIOD    2
                    SECONDS     MINUTES      HOURS       DAYS        YEARS
                    -----------------------------------------------------------
   TIME STEP LENGTH 1.72800E+05  2880.0      48.000      2.0000     5.47570E-03
 STRESS PERIOD TIME 2.69568E+07 4.49280E+05  7488.0      312.00     0.85421    
         TOTAL TIME 4.42368E+07 7.37280E+05  12288.      512.00      1.4018    


end timestep


start timestep kper="2" kstp="157" mode="normal"

 UBDSV1 SAVING           STO-SS ON UNIT   1027 AT TIME STEP    157, STRESS PERIOD      2
 UBDSV1 SAVING     FLOW-JA-FACE ON UNIT   1027 AT TIME STEP    157, STRESS PERIOD      2

 WEL PACKAGE (WEL1) FLOW RATES   PERIOD      2   STEP      157
 -----------------------------------------------
   NUMBER   CELLID                    RATE      
 -----------------------------------------------
     1      (1,17,17)            -5.00000000E-05
     2      (1,33,17)            -5.00000000E-05
     3      (1,9,26)             -5.00000000E-05
     4      (1,17,35)            -5.00000000E-05
     5      (1,33,35)            -5.00000000E-05
     6      (1,26,26)            -5.00000000E-05
     7      (1,41,26)            -5.00000000E-05
     8      (1,4,39)             -5.00000000E-05
     9      (1,27,3)             -5.00000000E-05
     10     (1,46,46)            -5.00000000E-05
 -----------------------------------------------




 WEL PACKAGE (WEL2) FLOW RATES   PERIOD      2   STEP      157
 -----------------------------------------------
   NUMBER   CELLID                    RATE      
 -----------------------------------------------
     1      (1,17,26)             2.50000000E-04
     2      (1,33,26)             2.50000000E-04
 -----------------------------------------------




 HEAD WILL BE SAVED ON UNIT 1028 AT END OF TIME STEP  157, STRESS PERIOD    2


  VOLUME BUDGET FOR ENTIRE MODEL AT END OF TIME STEP  157, STRESS PERIOD   2
  ---------------------------------------------------------------------------------------------------

     CUMULATIVE VOLUME      L**3       RATES FOR THIS TIME STEP      L**3/T          PACKAGE NAME    
     ------------------                 ------------------------                     ----------------

           IN:                                      IN:
           ---                                      ---
              STO-SS =           0.0000                STO-SS =           0.0000     STORAGE                          
                 WEL =           0.0000                   WEL =           0.0000     WEL1                             
                 WEL =           0.2570                   WEL =       5.0000E-04     WEL2                             

            TOTAL IN =           0.2570              TOTAL IN =       5.0000E-04

          OUT:                                     OUT:
          ----                                     ----
              STO-SS =           0.0000                STO-SS =           0.0000     STORAGE                          
                 WEL =           0.2570                   WEL =       5.0000E-04     WEL1                             
                 WEL =           0.0000                   WEL =           0.0000     WEL2                             

           TOTAL OUT =           0.2570             TOTAL OUT =       5.0000E-04

            IN - OUT =       4.0000E-11              IN - OUT =      -1.0842E-19

 PERCENT DISCREPANCY =           0.00     PERCENT DISCREPANCY =          -0.00




         TIME SUMMARY AT END OF TIME STEP  157 IN STRESS PERIOD    2
                    SECONDS     MINUTES      HOURS       DAYS        YEARS
                    -----------------------------------------------------------
   TIME STEP LENGTH 1.72800E+05  2880.0      48.000      2.0000     5.47570E-03
 STRESS PERIOD TIME 2.71296E+07 4.52160E+05  7536.0      314.00     0.85969    
         TOTAL TIME 4.44096E+07 7.40160E+05  12336.      514.00      1.4073    


end timestep


start timestep kper="2" kstp="158" mode="normal"

 UBDSV1 SAVING           STO-SS ON UNIT   1027 AT TIME STEP    158, STRESS PERIOD      2
 UBDSV1 SAVING     FLOW-JA-FACE ON UNIT   1027 AT TIME STEP    158, STRESS PERIOD      2

 WEL PACKAGE (WEL1) FLOW RATES   PERIOD      2   STEP      158
 -----------------------------------------------
   NUMBER   CELLID                    RATE      
 -----------------------------------------------
     1      (1,17,17)            -5.00000000E-05
     2      (1,33,17)            -5.00000000E-05
     3      (1,9,26)             -5.00000000E-05
     4      (1,17,35)            -5.00000000E-05
     5      (1,33,35)            -5.00000000E-05
     6      (1,26,26)            -5.00000000E-05
     7      (1,41,26)            -5.00000000E-05
     8      (1,4,39)             -5.00000000E-05
     9      (1,27,3)             -5.00000000E-05
     10     (1,46,46)            -5.00000000E-05
 -----------------------------------------------




 WEL PACKAGE (WEL2) FLOW RATES   PERIOD      2   STEP      158
 -----------------------------------------------
   NUMBER   CELLID                    RATE      
 -----------------------------------------------
     1      (1,17,26)             2.50000000E-04
     2      (1,33,26)             2.50000000E-04
 -----------------------------------------------




 HEAD WILL BE SAVED ON UNIT 1028 AT END OF TIME STEP  158, STRESS PERIOD    2


  VOLUME BUDGET FOR ENTIRE MODEL AT END OF TIME STEP  158, STRESS PERIOD   2
  ---------------------------------------------------------------------------------------------------

     CUMULATIVE VOLUME      L**3       RATES FOR THIS TIME STEP      L**3/T          PACKAGE NAME    
     ------------------                 ------------------------                     ----------------

           IN:                                      IN:
           ---                                      ---
              STO-SS =           0.0000                STO-SS =           0.0000     STORAGE                          
                 WEL =           0.0000                   WEL =           0.0000     WEL1                             
                 WEL =           0.2580                   WEL =       5.0000E-04     WEL2                             

            TOTAL IN =           0.2580              TOTAL IN =       5.0000E-04

          OUT:                                     OUT:
          ----                                     ----
              STO-SS =           0.0000                STO-SS =           0.0000     STORAGE                          
                 WEL =           0.2580                   WEL =       5.0000E-04     WEL1                             
                 WEL =           0.0000                   WEL =           0.0000     WEL2                             

           TOTAL OUT =           0.2580             TOTAL OUT =       5.0000E-04

            IN - OUT =       4.0000E-11              IN - OUT =      -1.0842E-19

 PERCENT DISCREPANCY =           0.00     PERCENT DISCREPANCY =          -0.00




         TIME SUMMARY AT END OF TIME STEP  158 IN STRESS PERIOD    2
                    SECONDS     MINUTES      HOURS       DAYS        YEARS
                    -----------------------------------------------------------
   TIME STEP LENGTH 1.72800E+05  2880.0      48.000      2.0000     5.47570E-03
 STRESS PERIOD TIME 2.73024E+07 4.55040E+05  7584.0      316.00     0.86516    
         TOTAL TIME 4.45824E+07 7.43040E+05  12384.      516.00      1.4127    


end timestep


start timestep kper="2" kstp="159" mode="normal"

 UBDSV1 SAVING           STO-SS ON UNIT   1027 AT TIME STEP    159, STRESS PERIOD      2
 UBDSV1 SAVING     FLOW-JA-FACE ON UNIT   1027 AT TIME STEP    159, STRESS PERIOD      2

 WEL PACKAGE (WEL1) FLOW RATES   PERIOD      2   STEP      159
 -----------------------------------------------
   NUMBER   CELLID                    RATE      
 -----------------------------------------------
     1      (1,17,17)            -5.00000000E-05
     2      (1,33,17)            -5.00000000E-05
     3      (1,9,26)             -5.00000000E-05
     4      (1,17,35)            -5.00000000E-05
     5      (1,33,35)            -5.00000000E-05
     6      (1,26,26)            -5.00000000E-05
     7      (1,41,26)            -5.00000000E-05
     8      (1,4,39)             -5.00000000E-05
     9      (1,27,3)             -5.00000000E-05
     10     (1,46,46)            -5.00000000E-05
 -----------------------------------------------




 WEL PACKAGE (WEL2) FLOW RATES   PERIOD      2   STEP      159
 -----------------------------------------------
   NUMBER   CELLID                    RATE      
 -----------------------------------------------
     1      (1,17,26)             2.50000000E-04
     2      (1,33,26)             2.50000000E-04
 -----------------------------------------------




 HEAD WILL BE SAVED ON UNIT 1028 AT END OF TIME STEP  159, STRESS PERIOD    2


  VOLUME BUDGET FOR ENTIRE MODEL AT END OF TIME STEP  159, STRESS PERIOD   2
  ---------------------------------------------------------------------------------------------------

     CUMULATIVE VOLUME      L**3       RATES FOR THIS TIME STEP      L**3/T          PACKAGE NAME    
     ------------------                 ------------------------                     ----------------

           IN:                                      IN:
           ---                                      ---
              STO-SS =           0.0000                STO-SS =           0.0000     STORAGE                          
                 WEL =           0.0000                   WEL =           0.0000     WEL1                             
                 WEL =           0.2590                   WEL =       5.0000E-04     WEL2                             

            TOTAL IN =           0.2590              TOTAL IN =       5.0000E-04

          OUT:                                     OUT:
          ----                                     ----
              STO-SS =           0.0000                STO-SS =           0.0000     STORAGE                          
                 WEL =           0.2590                   WEL =       5.0000E-04     WEL1                             
                 WEL =           0.0000                   WEL =           0.0000     WEL2                             

           TOTAL OUT =           0.2590             TOTAL OUT =       5.0000E-04

            IN - OUT =       4.0000E-11              IN - OUT =      -1.0842E-19

 PERCENT DISCREPANCY =           0.00     PERCENT DISCREPANCY =          -0.00




         TIME SUMMARY AT END OF TIME STEP  159 IN STRESS PERIOD    2
                    SECONDS     MINUTES      HOURS       DAYS        YEARS
                    -----------------------------------------------------------
   TIME STEP LENGTH 1.72800E+05  2880.0      48.000      2.0000     5.47570E-03
 STRESS PERIOD TIME 2.74752E+07 4.57920E+05  7632.0      318.00     0.87064    
         TOTAL TIME 4.47552E+07 7.45920E+05  12432.      518.00      1.4182    


end timestep


start timestep kper="2" kstp="160" mode="normal"

 UBDSV1 SAVING           STO-SS ON UNIT   1027 AT TIME STEP    160, STRESS PERIOD      2
 UBDSV1 SAVING     FLOW-JA-FACE ON UNIT   1027 AT TIME STEP    160, STRESS PERIOD      2

 WEL PACKAGE (WEL1) FLOW RATES   PERIOD      2   STEP      160
 -----------------------------------------------
   NUMBER   CELLID                    RATE      
 -----------------------------------------------
     1      (1,17,17)            -5.00000000E-05
     2      (1,33,17)            -5.00000000E-05
     3      (1,9,26)             -5.00000000E-05
     4      (1,17,35)            -5.00000000E-05
     5      (1,33,35)            -5.00000000E-05
     6      (1,26,26)            -5.00000000E-05
     7      (1,41,26)            -5.00000000E-05
     8      (1,4,39)             -5.00000000E-05
     9      (1,27,3)             -5.00000000E-05
     10     (1,46,46)            -5.00000000E-05
 -----------------------------------------------




 WEL PACKAGE (WEL2) FLOW RATES   PERIOD      2   STEP      160
 -----------------------------------------------
   NUMBER   CELLID                    RATE      
 -----------------------------------------------
     1      (1,17,26)             2.50000000E-04
     2      (1,33,26)             2.50000000E-04
 -----------------------------------------------




 HEAD WILL BE SAVED ON UNIT 1028 AT END OF TIME STEP  160, STRESS PERIOD    2


  VOLUME BUDGET FOR ENTIRE MODEL AT END OF TIME STEP  160, STRESS PERIOD   2
  ---------------------------------------------------------------------------------------------------

     CUMULATIVE VOLUME      L**3       RATES FOR THIS TIME STEP      L**3/T          PACKAGE NAME    
     ------------------                 ------------------------                     ----------------

           IN:                                      IN:
           ---                                      ---
              STO-SS =           0.0000                STO-SS =           0.0000     STORAGE                          
                 WEL =           0.0000                   WEL =           0.0000     WEL1                             
                 WEL =           0.2600                   WEL =       5.0000E-04     WEL2                             

            TOTAL IN =           0.2600              TOTAL IN =       5.0000E-04

          OUT:                                     OUT:
          ----                                     ----
              STO-SS =           0.0000                STO-SS =           0.0000     STORAGE                          
                 WEL =           0.2600                   WEL =       5.0000E-04     WEL1                             
                 WEL =           0.0000                   WEL =           0.0000     WEL2                             

           TOTAL OUT =           0.2600             TOTAL OUT =       5.0000E-04

            IN - OUT =       4.0000E-11              IN - OUT =      -1.0842E-19

 PERCENT DISCREPANCY =           0.00     PERCENT DISCREPANCY =          -0.00




         TIME SUMMARY AT END OF TIME STEP  160 IN STRESS PERIOD    2
                    SECONDS     MINUTES      HOURS       DAYS        YEARS
                    -----------------------------------------------------------
   TIME STEP LENGTH 1.72800E+05  2880.0      48.000      2.0000     5.47570E-03
 STRESS PERIOD TIME 2.76480E+07 4.60800E+05  7680.0      320.00     0.87611    
         TOTAL TIME 4.49280E+07 7.48800E+05  12480.      520.00      1.4237    


end timestep


start timestep kper="2" kstp="161" mode="normal"

 UBDSV1 SAVING           STO-SS ON UNIT   1027 AT TIME STEP    161, STRESS PERIOD      2
 UBDSV1 SAVING     FLOW-JA-FACE ON UNIT   1027 AT TIME STEP    161, STRESS PERIOD      2

 WEL PACKAGE (WEL1) FLOW RATES   PERIOD      2   STEP      161
 -----------------------------------------------
   NUMBER   CELLID                    RATE      
 -----------------------------------------------
     1      (1,17,17)            -5.00000000E-05
     2      (1,33,17)            -5.00000000E-05
     3      (1,9,26)             -5.00000000E-05
     4      (1,17,35)            -5.00000000E-05
     5      (1,33,35)            -5.00000000E-05
     6      (1,26,26)            -5.00000000E-05
     7      (1,41,26)            -5.00000000E-05
     8      (1,4,39)             -5.00000000E-05
     9      (1,27,3)             -5.00000000E-05
     10     (1,46,46)            -5.00000000E-05
 -----------------------------------------------




 WEL PACKAGE (WEL2) FLOW RATES   PERIOD      2   STEP      161
 -----------------------------------------------
   NUMBER   CELLID                    RATE      
 -----------------------------------------------
     1      (1,17,26)             2.50000000E-04
     2      (1,33,26)             2.50000000E-04
 -----------------------------------------------




 HEAD WILL BE SAVED ON UNIT 1028 AT END OF TIME STEP  161, STRESS PERIOD    2


  VOLUME BUDGET FOR ENTIRE MODEL AT END OF TIME STEP  161, STRESS PERIOD   2
  ---------------------------------------------------------------------------------------------------

     CUMULATIVE VOLUME      L**3       RATES FOR THIS TIME STEP      L**3/T          PACKAGE NAME    
     ------------------                 ------------------------                     ----------------

           IN:                                      IN:
           ---                                      ---
              STO-SS =           0.0000                STO-SS =           0.0000     STORAGE                          
                 WEL =           0.0000                   WEL =           0.0000     WEL1                             
                 WEL =           0.2610                   WEL =       5.0000E-04     WEL2                             

            TOTAL IN =           0.2610              TOTAL IN =       5.0000E-04

          OUT:                                     OUT:
          ----                                     ----
              STO-SS =           0.0000                STO-SS =           0.0000     STORAGE                          
                 WEL =           0.2610                   WEL =       5.0000E-04     WEL1                             
                 WEL =           0.0000                   WEL =           0.0000     WEL2                             

           TOTAL OUT =           0.2610             TOTAL OUT =       5.0000E-04

            IN - OUT =       4.0000E-11              IN - OUT =      -1.0842E-19

 PERCENT DISCREPANCY =           0.00     PERCENT DISCREPANCY =          -0.00




         TIME SUMMARY AT END OF TIME STEP  161 IN STRESS PERIOD    2
                    SECONDS     MINUTES      HOURS       DAYS        YEARS
                    -----------------------------------------------------------
   TIME STEP LENGTH 1.72800E+05  2880.0      48.000      2.0000     5.47570E-03
 STRESS PERIOD TIME 2.78208E+07 4.63680E+05  7728.0      322.00     0.88159    
         TOTAL TIME 4.51008E+07 7.51680E+05  12528.      522.00      1.4292    


end timestep


start timestep kper="2" kstp="162" mode="normal"

 UBDSV1 SAVING           STO-SS ON UNIT   1027 AT TIME STEP    162, STRESS PERIOD      2
 UBDSV1 SAVING     FLOW-JA-FACE ON UNIT   1027 AT TIME STEP    162, STRESS PERIOD      2

 WEL PACKAGE (WEL1) FLOW RATES   PERIOD      2   STEP      162
 -----------------------------------------------
   NUMBER   CELLID                    RATE      
 -----------------------------------------------
     1      (1,17,17)            -5.00000000E-05
     2      (1,33,17)            -5.00000000E-05
     3      (1,9,26)             -5.00000000E-05
     4      (1,17,35)            -5.00000000E-05
     5      (1,33,35)            -5.00000000E-05
     6      (1,26,26)            -5.00000000E-05
     7      (1,41,26)            -5.00000000E-05
     8      (1,4,39)             -5.00000000E-05
     9      (1,27,3)             -5.00000000E-05
     10     (1,46,46)            -5.00000000E-05
 -----------------------------------------------




 WEL PACKAGE (WEL2) FLOW RATES   PERIOD      2   STEP      162
 -----------------------------------------------
   NUMBER   CELLID                    RATE      
 -----------------------------------------------
     1      (1,17,26)             2.50000000E-04
     2      (1,33,26)             2.50000000E-04
 -----------------------------------------------




 HEAD WILL BE SAVED ON UNIT 1028 AT END OF TIME STEP  162, STRESS PERIOD    2


  VOLUME BUDGET FOR ENTIRE MODEL AT END OF TIME STEP  162, STRESS PERIOD   2
  ---------------------------------------------------------------------------------------------------

     CUMULATIVE VOLUME      L**3       RATES FOR THIS TIME STEP      L**3/T          PACKAGE NAME    
     ------------------                 ------------------------                     ----------------

           IN:                                      IN:
           ---                                      ---
              STO-SS =           0.0000                STO-SS =           0.0000     STORAGE                          
                 WEL =           0.0000                   WEL =           0.0000     WEL1                             
                 WEL =           0.2620                   WEL =       5.0000E-04     WEL2                             

            TOTAL IN =           0.2620              TOTAL IN =       5.0000E-04

          OUT:                                     OUT:
          ----                                     ----
              STO-SS =           0.0000                STO-SS =           0.0000     STORAGE                          
                 WEL =           0.2620                   WEL =       5.0000E-04     WEL1                             
                 WEL =           0.0000                   WEL =           0.0000     WEL2                             

           TOTAL OUT =           0.2620             TOTAL OUT =       5.0000E-04

            IN - OUT =       4.0000E-11              IN - OUT =      -1.0842E-19

 PERCENT DISCREPANCY =           0.00     PERCENT DISCREPANCY =          -0.00




         TIME SUMMARY AT END OF TIME STEP  162 IN STRESS PERIOD    2
                    SECONDS     MINUTES      HOURS       DAYS        YEARS
                    -----------------------------------------------------------
   TIME STEP LENGTH 1.72800E+05  2880.0      48.000      2.0000     5.47570E-03
 STRESS PERIOD TIME 2.79936E+07 4.66560E+05  7776.0      324.00     0.88706    
         TOTAL TIME 4.52736E+07 7.54560E+05  12576.      524.00      1.4346    


end timestep


start timestep kper="2" kstp="163" mode="normal"

 UBDSV1 SAVING           STO-SS ON UNIT   1027 AT TIME STEP    163, STRESS PERIOD      2
 UBDSV1 SAVING     FLOW-JA-FACE ON UNIT   1027 AT TIME STEP    163, STRESS PERIOD      2

 WEL PACKAGE (WEL1) FLOW RATES   PERIOD      2   STEP      163
 -----------------------------------------------
   NUMBER   CELLID                    RATE      
 -----------------------------------------------
     1      (1,17,17)            -5.00000000E-05
     2      (1,33,17)            -5.00000000E-05
     3      (1,9,26)             -5.00000000E-05
     4      (1,17,35)            -5.00000000E-05
     5      (1,33,35)            -5.00000000E-05
     6      (1,26,26)            -5.00000000E-05
     7      (1,41,26)            -5.00000000E-05
     8      (1,4,39)             -5.00000000E-05
     9      (1,27,3)             -5.00000000E-05
     10     (1,46,46)            -5.00000000E-05
 -----------------------------------------------




 WEL PACKAGE (WEL2) FLOW RATES   PERIOD      2   STEP      163
 -----------------------------------------------
   NUMBER   CELLID                    RATE      
 -----------------------------------------------
     1      (1,17,26)             2.50000000E-04
     2      (1,33,26)             2.50000000E-04
 -----------------------------------------------




 HEAD WILL BE SAVED ON UNIT 1028 AT END OF TIME STEP  163, STRESS PERIOD    2


  VOLUME BUDGET FOR ENTIRE MODEL AT END OF TIME STEP  163, STRESS PERIOD   2
  ---------------------------------------------------------------------------------------------------

     CUMULATIVE VOLUME      L**3       RATES FOR THIS TIME STEP      L**3/T          PACKAGE NAME    
     ------------------                 ------------------------                     ----------------

           IN:                                      IN:
           ---                                      ---
              STO-SS =           0.0000                STO-SS =           0.0000     STORAGE                          
                 WEL =           0.0000                   WEL =           0.0000     WEL1                             
                 WEL =           0.2630                   WEL =       5.0000E-04     WEL2                             

            TOTAL IN =           0.2630              TOTAL IN =       5.0000E-04

          OUT:                                     OUT:
          ----                                     ----
              STO-SS =           0.0000                STO-SS =           0.0000     STORAGE                          
                 WEL =           0.2630                   WEL =       5.0000E-04     WEL1                             
                 WEL =           0.0000                   WEL =           0.0000     WEL2                             

           TOTAL OUT =           0.2630             TOTAL OUT =       5.0000E-04

            IN - OUT =       4.0000E-11              IN - OUT =      -1.0842E-19

 PERCENT DISCREPANCY =           0.00     PERCENT DISCREPANCY =          -0.00




         TIME SUMMARY AT END OF TIME STEP  163 IN STRESS PERIOD    2
                    SECONDS     MINUTES      HOURS       DAYS        YEARS
                    -----------------------------------------------------------
   TIME STEP LENGTH 1.72800E+05  2880.0      48.000      2.0000     5.47570E-03
 STRESS PERIOD TIME 2.81664E+07 4.69440E+05  7824.0      326.00     0.89254    
         TOTAL TIME 4.54464E+07 7.57440E+05  12624.      526.00      1.4401    


end timestep


start timestep kper="2" kstp="164" mode="normal"

 UBDSV1 SAVING           STO-SS ON UNIT   1027 AT TIME STEP    164, STRESS PERIOD      2
 UBDSV1 SAVING     FLOW-JA-FACE ON UNIT   1027 AT TIME STEP    164, STRESS PERIOD      2

 WEL PACKAGE (WEL1) FLOW RATES   PERIOD      2   STEP      164
 -----------------------------------------------
   NUMBER   CELLID                    RATE      
 -----------------------------------------------
     1      (1,17,17)            -5.00000000E-05
     2      (1,33,17)            -5.00000000E-05
     3      (1,9,26)             -5.00000000E-05
     4      (1,17,35)            -5.00000000E-05
     5      (1,33,35)            -5.00000000E-05
     6      (1,26,26)            -5.00000000E-05
     7      (1,41,26)            -5.00000000E-05
     8      (1,4,39)             -5.00000000E-05
     9      (1,27,3)             -5.00000000E-05
     10     (1,46,46)            -5.00000000E-05
 -----------------------------------------------




 WEL PACKAGE (WEL2) FLOW RATES   PERIOD      2   STEP      164
 -----------------------------------------------
   NUMBER   CELLID                    RATE      
 -----------------------------------------------
     1      (1,17,26)             2.50000000E-04
     2      (1,33,26)             2.50000000E-04
 -----------------------------------------------




 HEAD WILL BE SAVED ON UNIT 1028 AT END OF TIME STEP  164, STRESS PERIOD    2


  VOLUME BUDGET FOR ENTIRE MODEL AT END OF TIME STEP  164, STRESS PERIOD   2
  ---------------------------------------------------------------------------------------------------

     CUMULATIVE VOLUME      L**3       RATES FOR THIS TIME STEP      L**3/T          PACKAGE NAME    
     ------------------                 ------------------------                     ----------------

           IN:                                      IN:
           ---                                      ---
              STO-SS =           0.0000                STO-SS =           0.0000     STORAGE                          
                 WEL =           0.0000                   WEL =           0.0000     WEL1                             
                 WEL =           0.2640                   WEL =       5.0000E-04     WEL2                             

            TOTAL IN =           0.2640              TOTAL IN =       5.0000E-04

          OUT:                                     OUT:
          ----                                     ----
              STO-SS =           0.0000                STO-SS =           0.0000     STORAGE                          
                 WEL =           0.2640                   WEL =       5.0000E-04     WEL1                             
                 WEL =           0.0000                   WEL =           0.0000     WEL2                             

           TOTAL OUT =           0.2640             TOTAL OUT =       5.0000E-04

            IN - OUT =       4.0000E-11              IN - OUT =      -1.0842E-19

 PERCENT DISCREPANCY =           0.00     PERCENT DISCREPANCY =          -0.00




         TIME SUMMARY AT END OF TIME STEP  164 IN STRESS PERIOD    2
                    SECONDS     MINUTES      HOURS       DAYS        YEARS
                    -----------------------------------------------------------
   TIME STEP LENGTH 1.72800E+05  2880.0      48.000      2.0000     5.47570E-03
 STRESS PERIOD TIME 2.83392E+07 4.72320E+05  7872.0      328.00     0.89802    
         TOTAL TIME 4.56192E+07 7.60320E+05  12672.      528.00      1.4456    


end timestep


start timestep kper="2" kstp="165" mode="normal"

 UBDSV1 SAVING           STO-SS ON UNIT   1027 AT TIME STEP    165, STRESS PERIOD      2
 UBDSV1 SAVING     FLOW-JA-FACE ON UNIT   1027 AT TIME STEP    165, STRESS PERIOD      2

 WEL PACKAGE (WEL1) FLOW RATES   PERIOD      2   STEP      165
 -----------------------------------------------
   NUMBER   CELLID                    RATE      
 -----------------------------------------------
     1      (1,17,17)            -5.00000000E-05
     2      (1,33,17)            -5.00000000E-05
     3      (1,9,26)             -5.00000000E-05
     4      (1,17,35)            -5.00000000E-05
     5      (1,33,35)            -5.00000000E-05
     6      (1,26,26)            -5.00000000E-05
     7      (1,41,26)            -5.00000000E-05
     8      (1,4,39)             -5.00000000E-05
     9      (1,27,3)             -5.00000000E-05
     10     (1,46,46)            -5.00000000E-05
 -----------------------------------------------




 WEL PACKAGE (WEL2) FLOW RATES   PERIOD      2   STEP      165
 -----------------------------------------------
   NUMBER   CELLID                    RATE      
 -----------------------------------------------
     1      (1,17,26)             2.50000000E-04
     2      (1,33,26)             2.50000000E-04
 -----------------------------------------------




 HEAD WILL BE SAVED ON UNIT 1028 AT END OF TIME STEP  165, STRESS PERIOD    2


  VOLUME BUDGET FOR ENTIRE MODEL AT END OF TIME STEP  165, STRESS PERIOD   2
  ---------------------------------------------------------------------------------------------------

     CUMULATIVE VOLUME      L**3       RATES FOR THIS TIME STEP      L**3/T          PACKAGE NAME    
     ------------------                 ------------------------                     ----------------

           IN:                                      IN:
           ---                                      ---
              STO-SS =           0.0000                STO-SS =           0.0000     STORAGE                          
                 WEL =           0.0000                   WEL =           0.0000     WEL1                             
                 WEL =           0.2650                   WEL =       5.0000E-04     WEL2                             

            TOTAL IN =           0.2650              TOTAL IN =       5.0000E-04

          OUT:                                     OUT:
          ----                                     ----
              STO-SS =           0.0000                STO-SS =           0.0000     STORAGE                          
                 WEL =           0.2650                   WEL =       5.0000E-04     WEL1                             
                 WEL =           0.0000                   WEL =           0.0000     WEL2                             

           TOTAL OUT =           0.2650             TOTAL OUT =       5.0000E-04

            IN - OUT =       4.0000E-11              IN - OUT =      -1.0842E-19

 PERCENT DISCREPANCY =           0.00     PERCENT DISCREPANCY =          -0.00




         TIME SUMMARY AT END OF TIME STEP  165 IN STRESS PERIOD    2
                    SECONDS     MINUTES      HOURS       DAYS        YEARS
                    -----------------------------------------------------------
   TIME STEP LENGTH 1.72800E+05  2880.0      48.000      2.0000     5.47570E-03
 STRESS PERIOD TIME 2.85120E+07 4.75200E+05  7920.0      330.00     0.90349    
         TOTAL TIME 4.57920E+07 7.63200E+05  12720.      530.00      1.4511    


end timestep


start timestep kper="2" kstp="166" mode="normal"

 UBDSV1 SAVING           STO-SS ON UNIT   1027 AT TIME STEP    166, STRESS PERIOD      2
 UBDSV1 SAVING     FLOW-JA-FACE ON UNIT   1027 AT TIME STEP    166, STRESS PERIOD      2

 WEL PACKAGE (WEL1) FLOW RATES   PERIOD      2   STEP      166
 -----------------------------------------------
   NUMBER   CELLID                    RATE      
 -----------------------------------------------
     1      (1,17,17)            -5.00000000E-05
     2      (1,33,17)            -5.00000000E-05
     3      (1,9,26)             -5.00000000E-05
     4      (1,17,35)            -5.00000000E-05
     5      (1,33,35)            -5.00000000E-05
     6      (1,26,26)            -5.00000000E-05
     7      (1,41,26)            -5.00000000E-05
     8      (1,4,39)             -5.00000000E-05
     9      (1,27,3)             -5.00000000E-05
     10     (1,46,46)            -5.00000000E-05
 -----------------------------------------------




 WEL PACKAGE (WEL2) FLOW RATES   PERIOD      2   STEP      166
 -----------------------------------------------
   NUMBER   CELLID                    RATE      
 -----------------------------------------------
     1      (1,17,26)             2.50000000E-04
     2      (1,33,26)             2.50000000E-04
 -----------------------------------------------




 HEAD WILL BE SAVED ON UNIT 1028 AT END OF TIME STEP  166, STRESS PERIOD    2


  VOLUME BUDGET FOR ENTIRE MODEL AT END OF TIME STEP  166, STRESS PERIOD   2
  ---------------------------------------------------------------------------------------------------

     CUMULATIVE VOLUME      L**3       RATES FOR THIS TIME STEP      L**3/T          PACKAGE NAME    
     ------------------                 ------------------------                     ----------------

           IN:                                      IN:
           ---                                      ---
              STO-SS =           0.0000                STO-SS =           0.0000     STORAGE                          
                 WEL =           0.0000                   WEL =           0.0000     WEL1                             
                 WEL =           0.2660                   WEL =       5.0000E-04     WEL2                             

            TOTAL IN =           0.2660              TOTAL IN =       5.0000E-04

          OUT:                                     OUT:
          ----                                     ----
              STO-SS =           0.0000                STO-SS =           0.0000     STORAGE                          
                 WEL =           0.2660                   WEL =       5.0000E-04     WEL1                             
                 WEL =           0.0000                   WEL =           0.0000     WEL2                             

           TOTAL OUT =           0.2660             TOTAL OUT =       5.0000E-04

            IN - OUT =       4.0000E-11              IN - OUT =      -1.0842E-19

 PERCENT DISCREPANCY =           0.00     PERCENT DISCREPANCY =          -0.00




         TIME SUMMARY AT END OF TIME STEP  166 IN STRESS PERIOD    2
                    SECONDS     MINUTES      HOURS       DAYS        YEARS
                    -----------------------------------------------------------
   TIME STEP LENGTH 1.72800E+05  2880.0      48.000      2.0000     5.47570E-03
 STRESS PERIOD TIME 2.86848E+07 4.78080E+05  7968.0      332.00     0.90897    
         TOTAL TIME 4.59648E+07 7.66080E+05  12768.      532.00      1.4565    


end timestep


start timestep kper="2" kstp="167" mode="normal"

 UBDSV1 SAVING           STO-SS ON UNIT   1027 AT TIME STEP    167, STRESS PERIOD      2
 UBDSV1 SAVING     FLOW-JA-FACE ON UNIT   1027 AT TIME STEP    167, STRESS PERIOD      2

 WEL PACKAGE (WEL1) FLOW RATES   PERIOD      2   STEP      167
 -----------------------------------------------
   NUMBER   CELLID                    RATE      
 -----------------------------------------------
     1      (1,17,17)            -5.00000000E-05
     2      (1,33,17)            -5.00000000E-05
     3      (1,9,26)             -5.00000000E-05
     4      (1,17,35)            -5.00000000E-05
     5      (1,33,35)            -5.00000000E-05
     6      (1,26,26)            -5.00000000E-05
     7      (1,41,26)            -5.00000000E-05
     8      (1,4,39)             -5.00000000E-05
     9      (1,27,3)             -5.00000000E-05
     10     (1,46,46)            -5.00000000E-05
 -----------------------------------------------




 WEL PACKAGE (WEL2) FLOW RATES   PERIOD      2   STEP      167
 -----------------------------------------------
   NUMBER   CELLID                    RATE      
 -----------------------------------------------
     1      (1,17,26)             2.50000000E-04
     2      (1,33,26)             2.50000000E-04
 -----------------------------------------------




 HEAD WILL BE SAVED ON UNIT 1028 AT END OF TIME STEP  167, STRESS PERIOD    2


  VOLUME BUDGET FOR ENTIRE MODEL AT END OF TIME STEP  167, STRESS PERIOD   2
  ---------------------------------------------------------------------------------------------------

     CUMULATIVE VOLUME      L**3       RATES FOR THIS TIME STEP      L**3/T          PACKAGE NAME    
     ------------------                 ------------------------                     ----------------

           IN:                                      IN:
           ---                                      ---
              STO-SS =           0.0000                STO-SS =           0.0000     STORAGE                          
                 WEL =           0.0000                   WEL =           0.0000     WEL1                             
                 WEL =           0.2670                   WEL =       5.0000E-04     WEL2                             

            TOTAL IN =           0.2670              TOTAL IN =       5.0000E-04

          OUT:                                     OUT:
          ----                                     ----
              STO-SS =           0.0000                STO-SS =           0.0000     STORAGE                          
                 WEL =           0.2670                   WEL =       5.0000E-04     WEL1                             
                 WEL =           0.0000                   WEL =           0.0000     WEL2                             

           TOTAL OUT =           0.2670             TOTAL OUT =       5.0000E-04

            IN - OUT =       4.0000E-11              IN - OUT =      -1.0842E-19

 PERCENT DISCREPANCY =           0.00     PERCENT DISCREPANCY =          -0.00




         TIME SUMMARY AT END OF TIME STEP  167 IN STRESS PERIOD    2
                    SECONDS     MINUTES      HOURS       DAYS        YEARS
                    -----------------------------------------------------------
   TIME STEP LENGTH 1.72800E+05  2880.0      48.000      2.0000     5.47570E-03
 STRESS PERIOD TIME 2.88576E+07 4.80960E+05  8016.0      334.00     0.91444    
         TOTAL TIME 4.61376E+07 7.68960E+05  12816.      534.00      1.4620    


end timestep


start timestep kper="2" kstp="168" mode="normal"

 UBDSV1 SAVING           STO-SS ON UNIT   1027 AT TIME STEP    168, STRESS PERIOD      2
 UBDSV1 SAVING     FLOW-JA-FACE ON UNIT   1027 AT TIME STEP    168, STRESS PERIOD      2

 WEL PACKAGE (WEL1) FLOW RATES   PERIOD      2   STEP      168
 -----------------------------------------------
   NUMBER   CELLID                    RATE      
 -----------------------------------------------
     1      (1,17,17)            -5.00000000E-05
     2      (1,33,17)            -5.00000000E-05
     3      (1,9,26)             -5.00000000E-05
     4      (1,17,35)            -5.00000000E-05
     5      (1,33,35)            -5.00000000E-05
     6      (1,26,26)            -5.00000000E-05
     7      (1,41,26)            -5.00000000E-05
     8      (1,4,39)             -5.00000000E-05
     9      (1,27,3)             -5.00000000E-05
     10     (1,46,46)            -5.00000000E-05
 -----------------------------------------------




 WEL PACKAGE (WEL2) FLOW RATES   PERIOD      2   STEP      168
 -----------------------------------------------
   NUMBER   CELLID                    RATE      
 -----------------------------------------------
     1      (1,17,26)             2.50000000E-04
     2      (1,33,26)             2.50000000E-04
 -----------------------------------------------




 HEAD WILL BE SAVED ON UNIT 1028 AT END OF TIME STEP  168, STRESS PERIOD    2


  VOLUME BUDGET FOR ENTIRE MODEL AT END OF TIME STEP  168, STRESS PERIOD   2
  ---------------------------------------------------------------------------------------------------

     CUMULATIVE VOLUME      L**3       RATES FOR THIS TIME STEP      L**3/T          PACKAGE NAME    
     ------------------                 ------------------------                     ----------------

           IN:                                      IN:
           ---                                      ---
              STO-SS =           0.0000                STO-SS =           0.0000     STORAGE                          
                 WEL =           0.0000                   WEL =           0.0000     WEL1                             
                 WEL =           0.2680                   WEL =       5.0000E-04     WEL2                             

            TOTAL IN =           0.2680              TOTAL IN =       5.0000E-04

          OUT:                                     OUT:
          ----                                     ----
              STO-SS =           0.0000                STO-SS =           0.0000     STORAGE                          
                 WEL =           0.2680                   WEL =       5.0000E-04     WEL1                             
                 WEL =           0.0000                   WEL =           0.0000     WEL2                             

           TOTAL OUT =           0.2680             TOTAL OUT =       5.0000E-04

            IN - OUT =       4.0000E-11              IN - OUT =      -1.0842E-19

 PERCENT DISCREPANCY =           0.00     PERCENT DISCREPANCY =          -0.00




         TIME SUMMARY AT END OF TIME STEP  168 IN STRESS PERIOD    2
                    SECONDS     MINUTES      HOURS       DAYS        YEARS
                    -----------------------------------------------------------
   TIME STEP LENGTH 1.72800E+05  2880.0      48.000      2.0000     5.47570E-03
 STRESS PERIOD TIME 2.90304E+07 4.83840E+05  8064.0      336.00     0.91992    
         TOTAL TIME 4.63104E+07 7.71840E+05  12864.      536.00      1.4675    


end timestep


start timestep kper="2" kstp="169" mode="normal"

 UBDSV1 SAVING           STO-SS ON UNIT   1027 AT TIME STEP    169, STRESS PERIOD      2
 UBDSV1 SAVING     FLOW-JA-FACE ON UNIT   1027 AT TIME STEP    169, STRESS PERIOD      2

 WEL PACKAGE (WEL1) FLOW RATES   PERIOD      2   STEP      169
 -----------------------------------------------
   NUMBER   CELLID                    RATE      
 -----------------------------------------------
     1      (1,17,17)            -5.00000000E-05
     2      (1,33,17)            -5.00000000E-05
     3      (1,9,26)             -5.00000000E-05
     4      (1,17,35)            -5.00000000E-05
     5      (1,33,35)            -5.00000000E-05
     6      (1,26,26)            -5.00000000E-05
     7      (1,41,26)            -5.00000000E-05
     8      (1,4,39)             -5.00000000E-05
     9      (1,27,3)             -5.00000000E-05
     10     (1,46,46)            -5.00000000E-05
 -----------------------------------------------




 WEL PACKAGE (WEL2) FLOW RATES   PERIOD      2   STEP      169
 -----------------------------------------------
   NUMBER   CELLID                    RATE      
 -----------------------------------------------
     1      (1,17,26)             2.50000000E-04
     2      (1,33,26)             2.50000000E-04
 -----------------------------------------------




 HEAD WILL BE SAVED ON UNIT 1028 AT END OF TIME STEP  169, STRESS PERIOD    2


  VOLUME BUDGET FOR ENTIRE MODEL AT END OF TIME STEP  169, STRESS PERIOD   2
  ---------------------------------------------------------------------------------------------------

     CUMULATIVE VOLUME      L**3       RATES FOR THIS TIME STEP      L**3/T          PACKAGE NAME    
     ------------------                 ------------------------                     ----------------

           IN:                                      IN:
           ---                                      ---
              STO-SS =           0.0000                STO-SS =           0.0000     STORAGE                          
                 WEL =           0.0000                   WEL =           0.0000     WEL1                             
                 WEL =           0.2690                   WEL =       5.0000E-04     WEL2                             

            TOTAL IN =           0.2690              TOTAL IN =       5.0000E-04

          OUT:                                     OUT:
          ----                                     ----
              STO-SS =           0.0000                STO-SS =           0.0000     STORAGE                          
                 WEL =           0.2690                   WEL =       5.0000E-04     WEL1                             
                 WEL =           0.0000                   WEL =           0.0000     WEL2                             

           TOTAL OUT =           0.2690             TOTAL OUT =       5.0000E-04

            IN - OUT =       4.0000E-11              IN - OUT =      -1.0842E-19

 PERCENT DISCREPANCY =           0.00     PERCENT DISCREPANCY =          -0.00




         TIME SUMMARY AT END OF TIME STEP  169 IN STRESS PERIOD    2
                    SECONDS     MINUTES      HOURS       DAYS        YEARS
                    -----------------------------------------------------------
   TIME STEP LENGTH 1.72800E+05  2880.0      48.000      2.0000     5.47570E-03
 STRESS PERIOD TIME 2.92032E+07 4.86720E+05  8112.0      338.00     0.92539    
         TOTAL TIME 4.64832E+07 7.74720E+05  12912.      538.00      1.4730    


end timestep


start timestep kper="2" kstp="170" mode="normal"

 UBDSV1 SAVING           STO-SS ON UNIT   1027 AT TIME STEP    170, STRESS PERIOD      2
 UBDSV1 SAVING     FLOW-JA-FACE ON UNIT   1027 AT TIME STEP    170, STRESS PERIOD      2

 WEL PACKAGE (WEL1) FLOW RATES   PERIOD      2   STEP      170
 -----------------------------------------------
   NUMBER   CELLID                    RATE      
 -----------------------------------------------
     1      (1,17,17)            -5.00000000E-05
     2      (1,33,17)            -5.00000000E-05
     3      (1,9,26)             -5.00000000E-05
     4      (1,17,35)            -5.00000000E-05
     5      (1,33,35)            -5.00000000E-05
     6      (1,26,26)            -5.00000000E-05
     7      (1,41,26)            -5.00000000E-05
     8      (1,4,39)             -5.00000000E-05
     9      (1,27,3)             -5.00000000E-05
     10     (1,46,46)            -5.00000000E-05
 -----------------------------------------------




 WEL PACKAGE (WEL2) FLOW RATES   PERIOD      2   STEP      170
 -----------------------------------------------
   NUMBER   CELLID                    RATE      
 -----------------------------------------------
     1      (1,17,26)             2.50000000E-04
     2      (1,33,26)             2.50000000E-04
 -----------------------------------------------




 HEAD WILL BE SAVED ON UNIT 1028 AT END OF TIME STEP  170, STRESS PERIOD    2


  VOLUME BUDGET FOR ENTIRE MODEL AT END OF TIME STEP  170, STRESS PERIOD   2
  ---------------------------------------------------------------------------------------------------

     CUMULATIVE VOLUME      L**3       RATES FOR THIS TIME STEP      L**3/T          PACKAGE NAME    
     ------------------                 ------------------------                     ----------------

           IN:                                      IN:
           ---                                      ---
              STO-SS =           0.0000                STO-SS =           0.0000     STORAGE                          
                 WEL =           0.0000                   WEL =           0.0000     WEL1                             
                 WEL =           0.2700                   WEL =       5.0000E-04     WEL2                             

            TOTAL IN =           0.2700              TOTAL IN =       5.0000E-04

          OUT:                                     OUT:
          ----                                     ----
              STO-SS =           0.0000                STO-SS =           0.0000     STORAGE                          
                 WEL =           0.2700                   WEL =       5.0000E-04     WEL1                             
                 WEL =           0.0000                   WEL =           0.0000     WEL2                             

           TOTAL OUT =           0.2700             TOTAL OUT =       5.0000E-04

            IN - OUT =       4.0000E-11              IN - OUT =      -1.0842E-19

 PERCENT DISCREPANCY =           0.00     PERCENT DISCREPANCY =          -0.00




         TIME SUMMARY AT END OF TIME STEP  170 IN STRESS PERIOD    2
                    SECONDS     MINUTES      HOURS       DAYS        YEARS
                    -----------------------------------------------------------
   TIME STEP LENGTH 1.72800E+05  2880.0      48.000      2.0000     5.47570E-03
 STRESS PERIOD TIME 2.93760E+07 4.89600E+05  8160.0      340.00     0.93087    
         TOTAL TIME 4.66560E+07 7.77600E+05  12960.      540.00      1.4784    


end timestep


start timestep kper="2" kstp="171" mode="normal"

 UBDSV1 SAVING           STO-SS ON UNIT   1027 AT TIME STEP    171, STRESS PERIOD      2
 UBDSV1 SAVING     FLOW-JA-FACE ON UNIT   1027 AT TIME STEP    171, STRESS PERIOD      2

 WEL PACKAGE (WEL1) FLOW RATES   PERIOD      2   STEP      171
 -----------------------------------------------
   NUMBER   CELLID                    RATE      
 -----------------------------------------------
     1      (1,17,17)            -5.00000000E-05
     2      (1,33,17)            -5.00000000E-05
     3      (1,9,26)             -5.00000000E-05
     4      (1,17,35)            -5.00000000E-05
     5      (1,33,35)            -5.00000000E-05
     6      (1,26,26)            -5.00000000E-05
     7      (1,41,26)            -5.00000000E-05
     8      (1,4,39)             -5.00000000E-05
     9      (1,27,3)             -5.00000000E-05
     10     (1,46,46)            -5.00000000E-05
 -----------------------------------------------




 WEL PACKAGE (WEL2) FLOW RATES   PERIOD      2   STEP      171
 -----------------------------------------------
   NUMBER   CELLID                    RATE      
 -----------------------------------------------
     1      (1,17,26)             2.50000000E-04
     2      (1,33,26)             2.50000000E-04
 -----------------------------------------------




 HEAD WILL BE SAVED ON UNIT 1028 AT END OF TIME STEP  171, STRESS PERIOD    2


  VOLUME BUDGET FOR ENTIRE MODEL AT END OF TIME STEP  171, STRESS PERIOD   2
  ---------------------------------------------------------------------------------------------------

     CUMULATIVE VOLUME      L**3       RATES FOR THIS TIME STEP      L**3/T          PACKAGE NAME    
     ------------------                 ------------------------                     ----------------

           IN:                                      IN:
           ---                                      ---
              STO-SS =           0.0000                STO-SS =           0.0000     STORAGE                          
                 WEL =           0.0000                   WEL =           0.0000     WEL1                             
                 WEL =           0.2710                   WEL =       5.0000E-04     WEL2                             

            TOTAL IN =           0.2710              TOTAL IN =       5.0000E-04

          OUT:                                     OUT:
          ----                                     ----
              STO-SS =           0.0000                STO-SS =           0.0000     STORAGE                          
                 WEL =           0.2710                   WEL =       5.0000E-04     WEL1                             
                 WEL =           0.0000                   WEL =           0.0000     WEL2                             

           TOTAL OUT =           0.2710             TOTAL OUT =       5.0000E-04

            IN - OUT =       4.0000E-11              IN - OUT =      -1.0842E-19

 PERCENT DISCREPANCY =           0.00     PERCENT DISCREPANCY =          -0.00




         TIME SUMMARY AT END OF TIME STEP  171 IN STRESS PERIOD    2
                    SECONDS     MINUTES      HOURS       DAYS        YEARS
                    -----------------------------------------------------------
   TIME STEP LENGTH 1.72800E+05  2880.0      48.000      2.0000     5.47570E-03
 STRESS PERIOD TIME 2.95488E+07 4.92480E+05  8208.0      342.00     0.93634    
         TOTAL TIME 4.68288E+07 7.80480E+05  13008.      542.00      1.4839    


end timestep


start timestep kper="2" kstp="172" mode="normal"

 UBDSV1 SAVING           STO-SS ON UNIT   1027 AT TIME STEP    172, STRESS PERIOD      2
 UBDSV1 SAVING     FLOW-JA-FACE ON UNIT   1027 AT TIME STEP    172, STRESS PERIOD      2

 WEL PACKAGE (WEL1) FLOW RATES   PERIOD      2   STEP      172
 -----------------------------------------------
   NUMBER   CELLID                    RATE      
 -----------------------------------------------
     1      (1,17,17)            -5.00000000E-05
     2      (1,33,17)            -5.00000000E-05
     3      (1,9,26)             -5.00000000E-05
     4      (1,17,35)            -5.00000000E-05
     5      (1,33,35)            -5.00000000E-05
     6      (1,26,26)            -5.00000000E-05
     7      (1,41,26)            -5.00000000E-05
     8      (1,4,39)             -5.00000000E-05
     9      (1,27,3)             -5.00000000E-05
     10     (1,46,46)            -5.00000000E-05
 -----------------------------------------------




 WEL PACKAGE (WEL2) FLOW RATES   PERIOD      2   STEP      172
 -----------------------------------------------
   NUMBER   CELLID                    RATE      
 -----------------------------------------------
     1      (1,17,26)             2.50000000E-04
     2      (1,33,26)             2.50000000E-04
 -----------------------------------------------




 HEAD WILL BE SAVED ON UNIT 1028 AT END OF TIME STEP  172, STRESS PERIOD    2


  VOLUME BUDGET FOR ENTIRE MODEL AT END OF TIME STEP  172, STRESS PERIOD   2
  ---------------------------------------------------------------------------------------------------

     CUMULATIVE VOLUME      L**3       RATES FOR THIS TIME STEP      L**3/T          PACKAGE NAME    
     ------------------                 ------------------------                     ----------------

           IN:                                      IN:
           ---                                      ---
              STO-SS =           0.0000                STO-SS =           0.0000     STORAGE                          
                 WEL =           0.0000                   WEL =           0.0000     WEL1                             
                 WEL =           0.2720                   WEL =       5.0000E-04     WEL2                             

            TOTAL IN =           0.2720              TOTAL IN =       5.0000E-04

          OUT:                                     OUT:
          ----                                     ----
              STO-SS =           0.0000                STO-SS =           0.0000     STORAGE                          
                 WEL =           0.2720                   WEL =       5.0000E-04     WEL1                             
                 WEL =           0.0000                   WEL =           0.0000     WEL2                             

           TOTAL OUT =           0.2720             TOTAL OUT =       5.0000E-04

            IN - OUT =       4.0000E-11              IN - OUT =      -1.0842E-19

 PERCENT DISCREPANCY =           0.00     PERCENT DISCREPANCY =          -0.00




         TIME SUMMARY AT END OF TIME STEP  172 IN STRESS PERIOD    2
                    SECONDS     MINUTES      HOURS       DAYS        YEARS
                    -----------------------------------------------------------
   TIME STEP LENGTH 1.72800E+05  2880.0      48.000      2.0000     5.47570E-03
 STRESS PERIOD TIME 2.97216E+07 4.95360E+05  8256.0      344.00     0.94182    
         TOTAL TIME 4.70016E+07 7.83360E+05  13056.      544.00      1.4894    


end timestep


start timestep kper="2" kstp="173" mode="normal"

 UBDSV1 SAVING           STO-SS ON UNIT   1027 AT TIME STEP    173, STRESS PERIOD      2
 UBDSV1 SAVING     FLOW-JA-FACE ON UNIT   1027 AT TIME STEP    173, STRESS PERIOD      2

 WEL PACKAGE (WEL1) FLOW RATES   PERIOD      2   STEP      173
 -----------------------------------------------
   NUMBER   CELLID                    RATE      
 -----------------------------------------------
     1      (1,17,17)            -5.00000000E-05
     2      (1,33,17)            -5.00000000E-05
     3      (1,9,26)             -5.00000000E-05
     4      (1,17,35)            -5.00000000E-05
     5      (1,33,35)            -5.00000000E-05
     6      (1,26,26)            -5.00000000E-05
     7      (1,41,26)            -5.00000000E-05
     8      (1,4,39)             -5.00000000E-05
     9      (1,27,3)             -5.00000000E-05
     10     (1,46,46)            -5.00000000E-05
 -----------------------------------------------




 WEL PACKAGE (WEL2) FLOW RATES   PERIOD      2   STEP      173
 -----------------------------------------------
   NUMBER   CELLID                    RATE      
 -----------------------------------------------
     1      (1,17,26)             2.50000000E-04
     2      (1,33,26)             2.50000000E-04
 -----------------------------------------------




 HEAD WILL BE SAVED ON UNIT 1028 AT END OF TIME STEP  173, STRESS PERIOD    2


  VOLUME BUDGET FOR ENTIRE MODEL AT END OF TIME STEP  173, STRESS PERIOD   2
  ---------------------------------------------------------------------------------------------------

     CUMULATIVE VOLUME      L**3       RATES FOR THIS TIME STEP      L**3/T          PACKAGE NAME    
     ------------------                 ------------------------                     ----------------

           IN:                                      IN:
           ---                                      ---
              STO-SS =           0.0000                STO-SS =           0.0000     STORAGE                          
                 WEL =           0.0000                   WEL =           0.0000     WEL1                             
                 WEL =           0.2730                   WEL =       5.0000E-04     WEL2                             

            TOTAL IN =           0.2730              TOTAL IN =       5.0000E-04

          OUT:                                     OUT:
          ----                                     ----
              STO-SS =           0.0000                STO-SS =           0.0000     STORAGE                          
                 WEL =           0.2730                   WEL =       5.0000E-04     WEL1                             
                 WEL =           0.0000                   WEL =           0.0000     WEL2                             

           TOTAL OUT =           0.2730             TOTAL OUT =       5.0000E-04

            IN - OUT =       4.0000E-11              IN - OUT =      -1.0842E-19

 PERCENT DISCREPANCY =           0.00     PERCENT DISCREPANCY =          -0.00




         TIME SUMMARY AT END OF TIME STEP  173 IN STRESS PERIOD    2
                    SECONDS     MINUTES      HOURS       DAYS        YEARS
                    -----------------------------------------------------------
   TIME STEP LENGTH 1.72800E+05  2880.0      48.000      2.0000     5.47570E-03
 STRESS PERIOD TIME 2.98944E+07 4.98240E+05  8304.0      346.00     0.94730    
         TOTAL TIME 4.71744E+07 7.86240E+05  13104.      546.00      1.4949    


end timestep


start timestep kper="2" kstp="174" mode="normal"

 UBDSV1 SAVING           STO-SS ON UNIT   1027 AT TIME STEP    174, STRESS PERIOD      2
 UBDSV1 SAVING     FLOW-JA-FACE ON UNIT   1027 AT TIME STEP    174, STRESS PERIOD      2

 WEL PACKAGE (WEL1) FLOW RATES   PERIOD      2   STEP      174
 -----------------------------------------------
   NUMBER   CELLID                    RATE      
 -----------------------------------------------
     1      (1,17,17)            -5.00000000E-05
     2      (1,33,17)            -5.00000000E-05
     3      (1,9,26)             -5.00000000E-05
     4      (1,17,35)            -5.00000000E-05
     5      (1,33,35)            -5.00000000E-05
     6      (1,26,26)            -5.00000000E-05
     7      (1,41,26)            -5.00000000E-05
     8      (1,4,39)             -5.00000000E-05
     9      (1,27,3)             -5.00000000E-05
     10     (1,46,46)            -5.00000000E-05
 -----------------------------------------------




 WEL PACKAGE (WEL2) FLOW RATES   PERIOD      2   STEP      174
 -----------------------------------------------
   NUMBER   CELLID                    RATE      
 -----------------------------------------------
     1      (1,17,26)             2.50000000E-04
     2      (1,33,26)             2.50000000E-04
 -----------------------------------------------




 HEAD WILL BE SAVED ON UNIT 1028 AT END OF TIME STEP  174, STRESS PERIOD    2


  VOLUME BUDGET FOR ENTIRE MODEL AT END OF TIME STEP  174, STRESS PERIOD   2
  ---------------------------------------------------------------------------------------------------

     CUMULATIVE VOLUME      L**3       RATES FOR THIS TIME STEP      L**3/T          PACKAGE NAME    
     ------------------                 ------------------------                     ----------------

           IN:                                      IN:
           ---                                      ---
              STO-SS =           0.0000                STO-SS =           0.0000     STORAGE                          
                 WEL =           0.0000                   WEL =           0.0000     WEL1                             
                 WEL =           0.2740                   WEL =       5.0000E-04     WEL2                             

            TOTAL IN =           0.2740              TOTAL IN =       5.0000E-04

          OUT:                                     OUT:
          ----                                     ----
              STO-SS =           0.0000                STO-SS =           0.0000     STORAGE                          
                 WEL =           0.2740                   WEL =       5.0000E-04     WEL1                             
                 WEL =           0.0000                   WEL =           0.0000     WEL2                             

           TOTAL OUT =           0.2740             TOTAL OUT =       5.0000E-04

            IN - OUT =       4.0000E-11              IN - OUT =      -1.0842E-19

 PERCENT DISCREPANCY =           0.00     PERCENT DISCREPANCY =          -0.00




         TIME SUMMARY AT END OF TIME STEP  174 IN STRESS PERIOD    2
                    SECONDS     MINUTES      HOURS       DAYS        YEARS
                    -----------------------------------------------------------
   TIME STEP LENGTH 1.72800E+05  2880.0      48.000      2.0000     5.47570E-03
 STRESS PERIOD TIME 3.00672E+07 5.01120E+05  8352.0      348.00     0.95277    
         TOTAL TIME 4.73472E+07 7.89120E+05  13152.      548.00      1.5003    


end timestep


start timestep kper="2" kstp="175" mode="normal"

 UBDSV1 SAVING           STO-SS ON UNIT   1027 AT TIME STEP    175, STRESS PERIOD      2
 UBDSV1 SAVING     FLOW-JA-FACE ON UNIT   1027 AT TIME STEP    175, STRESS PERIOD      2

 WEL PACKAGE (WEL1) FLOW RATES   PERIOD      2   STEP      175
 -----------------------------------------------
   NUMBER   CELLID                    RATE      
 -----------------------------------------------
     1      (1,17,17)            -5.00000000E-05
     2      (1,33,17)            -5.00000000E-05
     3      (1,9,26)             -5.00000000E-05
     4      (1,17,35)            -5.00000000E-05
     5      (1,33,35)            -5.00000000E-05
     6      (1,26,26)            -5.00000000E-05
     7      (1,41,26)            -5.00000000E-05
     8      (1,4,39)             -5.00000000E-05
     9      (1,27,3)             -5.00000000E-05
     10     (1,46,46)            -5.00000000E-05
 -----------------------------------------------




 WEL PACKAGE (WEL2) FLOW RATES   PERIOD      2   STEP      175
 -----------------------------------------------
   NUMBER   CELLID                    RATE      
 -----------------------------------------------
     1      (1,17,26)             2.50000000E-04
     2      (1,33,26)             2.50000000E-04
 -----------------------------------------------




 HEAD WILL BE SAVED ON UNIT 1028 AT END OF TIME STEP  175, STRESS PERIOD    2


  VOLUME BUDGET FOR ENTIRE MODEL AT END OF TIME STEP  175, STRESS PERIOD   2
  ---------------------------------------------------------------------------------------------------

     CUMULATIVE VOLUME      L**3       RATES FOR THIS TIME STEP      L**3/T          PACKAGE NAME    
     ------------------                 ------------------------                     ----------------

           IN:                                      IN:
           ---                                      ---
              STO-SS =           0.0000                STO-SS =           0.0000     STORAGE                          
                 WEL =           0.0000                   WEL =           0.0000     WEL1                             
                 WEL =           0.2750                   WEL =       5.0000E-04     WEL2                             

            TOTAL IN =           0.2750              TOTAL IN =       5.0000E-04

          OUT:                                     OUT:
          ----                                     ----
              STO-SS =           0.0000                STO-SS =           0.0000     STORAGE                          
                 WEL =           0.2750                   WEL =       5.0000E-04     WEL1                             
                 WEL =           0.0000                   WEL =           0.0000     WEL2                             

           TOTAL OUT =           0.2750             TOTAL OUT =       5.0000E-04

            IN - OUT =       4.0000E-11              IN - OUT =      -1.0842E-19

 PERCENT DISCREPANCY =           0.00     PERCENT DISCREPANCY =          -0.00




         TIME SUMMARY AT END OF TIME STEP  175 IN STRESS PERIOD    2
                    SECONDS     MINUTES      HOURS       DAYS        YEARS
                    -----------------------------------------------------------
   TIME STEP LENGTH 1.72800E+05  2880.0      48.000      2.0000     5.47570E-03
 STRESS PERIOD TIME 3.02400E+07 5.04000E+05  8400.0      350.00     0.95825    
         TOTAL TIME 4.75200E+07 7.92000E+05  13200.      550.00      1.5058    


end timestep


start timestep kper="2" kstp="176" mode="normal"

 UBDSV1 SAVING           STO-SS ON UNIT   1027 AT TIME STEP    176, STRESS PERIOD      2
 UBDSV1 SAVING     FLOW-JA-FACE ON UNIT   1027 AT TIME STEP    176, STRESS PERIOD      2

 WEL PACKAGE (WEL1) FLOW RATES   PERIOD      2   STEP      176
 -----------------------------------------------
   NUMBER   CELLID                    RATE      
 -----------------------------------------------
     1      (1,17,17)            -5.00000000E-05
     2      (1,33,17)            -5.00000000E-05
     3      (1,9,26)             -5.00000000E-05
     4      (1,17,35)            -5.00000000E-05
     5      (1,33,35)            -5.00000000E-05
     6      (1,26,26)            -5.00000000E-05
     7      (1,41,26)            -5.00000000E-05
     8      (1,4,39)             -5.00000000E-05
     9      (1,27,3)             -5.00000000E-05
     10     (1,46,46)            -5.00000000E-05
 -----------------------------------------------




 WEL PACKAGE (WEL2) FLOW RATES   PERIOD      2   STEP      176
 -----------------------------------------------
   NUMBER   CELLID                    RATE      
 -----------------------------------------------
     1      (1,17,26)             2.50000000E-04
     2      (1,33,26)             2.50000000E-04
 -----------------------------------------------




 HEAD WILL BE SAVED ON UNIT 1028 AT END OF TIME STEP  176, STRESS PERIOD    2


  VOLUME BUDGET FOR ENTIRE MODEL AT END OF TIME STEP  176, STRESS PERIOD   2
  ---------------------------------------------------------------------------------------------------

     CUMULATIVE VOLUME      L**3       RATES FOR THIS TIME STEP      L**3/T          PACKAGE NAME    
     ------------------                 ------------------------                     ----------------

           IN:                                      IN:
           ---                                      ---
              STO-SS =           0.0000                STO-SS =           0.0000     STORAGE                          
                 WEL =           0.0000                   WEL =           0.0000     WEL1                             
                 WEL =           0.2760                   WEL =       5.0000E-04     WEL2                             

            TOTAL IN =           0.2760              TOTAL IN =       5.0000E-04

          OUT:                                     OUT:
          ----                                     ----
              STO-SS =           0.0000                STO-SS =           0.0000     STORAGE                          
                 WEL =           0.2760                   WEL =       5.0000E-04     WEL1                             
                 WEL =           0.0000                   WEL =           0.0000     WEL2                             

           TOTAL OUT =           0.2760             TOTAL OUT =       5.0000E-04

            IN - OUT =       4.0000E-11              IN - OUT =      -1.0842E-19

 PERCENT DISCREPANCY =           0.00     PERCENT DISCREPANCY =          -0.00




         TIME SUMMARY AT END OF TIME STEP  176 IN STRESS PERIOD    2
                    SECONDS     MINUTES      HOURS       DAYS        YEARS
                    -----------------------------------------------------------
   TIME STEP LENGTH 1.72800E+05  2880.0      48.000      2.0000     5.47570E-03
 STRESS PERIOD TIME 3.04128E+07 5.06880E+05  8448.0      352.00     0.96372    
         TOTAL TIME 4.76928E+07 7.94880E+05  13248.      552.00      1.5113    


end timestep


start timestep kper="2" kstp="177" mode="normal"

 UBDSV1 SAVING           STO-SS ON UNIT   1027 AT TIME STEP    177, STRESS PERIOD      2
 UBDSV1 SAVING     FLOW-JA-FACE ON UNIT   1027 AT TIME STEP    177, STRESS PERIOD      2

 WEL PACKAGE (WEL1) FLOW RATES   PERIOD      2   STEP      177
 -----------------------------------------------
   NUMBER   CELLID                    RATE      
 -----------------------------------------------
     1      (1,17,17)            -5.00000000E-05
     2      (1,33,17)            -5.00000000E-05
     3      (1,9,26)             -5.00000000E-05
     4      (1,17,35)            -5.00000000E-05
     5      (1,33,35)            -5.00000000E-05
     6      (1,26,26)            -5.00000000E-05
     7      (1,41,26)            -5.00000000E-05
     8      (1,4,39)             -5.00000000E-05
     9      (1,27,3)             -5.00000000E-05
     10     (1,46,46)            -5.00000000E-05
 -----------------------------------------------




 WEL PACKAGE (WEL2) FLOW RATES   PERIOD      2   STEP      177
 -----------------------------------------------
   NUMBER   CELLID                    RATE      
 -----------------------------------------------
     1      (1,17,26)             2.50000000E-04
     2      (1,33,26)             2.50000000E-04
 -----------------------------------------------




 HEAD WILL BE SAVED ON UNIT 1028 AT END OF TIME STEP  177, STRESS PERIOD    2


  VOLUME BUDGET FOR ENTIRE MODEL AT END OF TIME STEP  177, STRESS PERIOD   2
  ---------------------------------------------------------------------------------------------------

     CUMULATIVE VOLUME      L**3       RATES FOR THIS TIME STEP      L**3/T          PACKAGE NAME    
     ------------------                 ------------------------                     ----------------

           IN:                                      IN:
           ---                                      ---
              STO-SS =           0.0000                STO-SS =           0.0000     STORAGE                          
                 WEL =           0.0000                   WEL =           0.0000     WEL1                             
                 WEL =           0.2770                   WEL =       5.0000E-04     WEL2                             

            TOTAL IN =           0.2770              TOTAL IN =       5.0000E-04

          OUT:                                     OUT:
          ----                                     ----
              STO-SS =           0.0000                STO-SS =           0.0000     STORAGE                          
                 WEL =           0.2770                   WEL =       5.0000E-04     WEL1                             
                 WEL =           0.0000                   WEL =           0.0000     WEL2                             

           TOTAL OUT =           0.2770             TOTAL OUT =       5.0000E-04

            IN - OUT =       4.0000E-11              IN - OUT =      -1.0842E-19

 PERCENT DISCREPANCY =           0.00     PERCENT DISCREPANCY =          -0.00




         TIME SUMMARY AT END OF TIME STEP  177 IN STRESS PERIOD    2
                    SECONDS     MINUTES      HOURS       DAYS        YEARS
                    -----------------------------------------------------------
   TIME STEP LENGTH 1.72800E+05  2880.0      48.000      2.0000     5.47570E-03
 STRESS PERIOD TIME 3.05856E+07 5.09760E+05  8496.0      354.00     0.96920    
         TOTAL TIME 4.78656E+07 7.97760E+05  13296.      554.00      1.5168    


end timestep


start timestep kper="2" kstp="178" mode="normal"

 UBDSV1 SAVING           STO-SS ON UNIT   1027 AT TIME STEP    178, STRESS PERIOD      2
 UBDSV1 SAVING     FLOW-JA-FACE ON UNIT   1027 AT TIME STEP    178, STRESS PERIOD      2

 WEL PACKAGE (WEL1) FLOW RATES   PERIOD      2   STEP      178
 -----------------------------------------------
   NUMBER   CELLID                    RATE      
 -----------------------------------------------
     1      (1,17,17)            -5.00000000E-05
     2      (1,33,17)            -5.00000000E-05
     3      (1,9,26)             -5.00000000E-05
     4      (1,17,35)            -5.00000000E-05
     5      (1,33,35)            -5.00000000E-05
     6      (1,26,26)            -5.00000000E-05
     7      (1,41,26)            -5.00000000E-05
     8      (1,4,39)             -5.00000000E-05
     9      (1,27,3)             -5.00000000E-05
     10     (1,46,46)            -5.00000000E-05
 -----------------------------------------------




 WEL PACKAGE (WEL2) FLOW RATES   PERIOD      2   STEP      178
 -----------------------------------------------
   NUMBER   CELLID                    RATE      
 -----------------------------------------------
     1      (1,17,26)             2.50000000E-04
     2      (1,33,26)             2.50000000E-04
 -----------------------------------------------




 HEAD WILL BE SAVED ON UNIT 1028 AT END OF TIME STEP  178, STRESS PERIOD    2


  VOLUME BUDGET FOR ENTIRE MODEL AT END OF TIME STEP  178, STRESS PERIOD   2
  ---------------------------------------------------------------------------------------------------

     CUMULATIVE VOLUME      L**3       RATES FOR THIS TIME STEP      L**3/T          PACKAGE NAME    
     ------------------                 ------------------------                     ----------------

           IN:                                      IN:
           ---                                      ---
              STO-SS =           0.0000                STO-SS =           0.0000     STORAGE                          
                 WEL =           0.0000                   WEL =           0.0000     WEL1                             
                 WEL =           0.2780                   WEL =       5.0000E-04     WEL2                             

            TOTAL IN =           0.2780              TOTAL IN =       5.0000E-04

          OUT:                                     OUT:
          ----                                     ----
              STO-SS =           0.0000                STO-SS =           0.0000     STORAGE                          
                 WEL =           0.2780                   WEL =       5.0000E-04     WEL1                             
                 WEL =           0.0000                   WEL =           0.0000     WEL2                             

           TOTAL OUT =           0.2780             TOTAL OUT =       5.0000E-04

            IN - OUT =       4.0000E-11              IN - OUT =      -1.0842E-19

 PERCENT DISCREPANCY =           0.00     PERCENT DISCREPANCY =          -0.00




         TIME SUMMARY AT END OF TIME STEP  178 IN STRESS PERIOD    2
                    SECONDS     MINUTES      HOURS       DAYS        YEARS
                    -----------------------------------------------------------
   TIME STEP LENGTH 1.72800E+05  2880.0      48.000      2.0000     5.47570E-03
 STRESS PERIOD TIME 3.07584E+07 5.12640E+05  8544.0      356.00     0.97467    
         TOTAL TIME 4.80384E+07 8.00640E+05  13344.      556.00      1.5222    


end timestep


start timestep kper="2" kstp="179" mode="normal"

 UBDSV1 SAVING           STO-SS ON UNIT   1027 AT TIME STEP    179, STRESS PERIOD      2
 UBDSV1 SAVING     FLOW-JA-FACE ON UNIT   1027 AT TIME STEP    179, STRESS PERIOD      2

 WEL PACKAGE (WEL1) FLOW RATES   PERIOD      2   STEP      179
 -----------------------------------------------
   NUMBER   CELLID                    RATE      
 -----------------------------------------------
     1      (1,17,17)            -5.00000000E-05
     2      (1,33,17)            -5.00000000E-05
     3      (1,9,26)             -5.00000000E-05
     4      (1,17,35)            -5.00000000E-05
     5      (1,33,35)            -5.00000000E-05
     6      (1,26,26)            -5.00000000E-05
     7      (1,41,26)            -5.00000000E-05
     8      (1,4,39)             -5.00000000E-05
     9      (1,27,3)             -5.00000000E-05
     10     (1,46,46)            -5.00000000E-05
 -----------------------------------------------




 WEL PACKAGE (WEL2) FLOW RATES   PERIOD      2   STEP      179
 -----------------------------------------------
   NUMBER   CELLID                    RATE      
 -----------------------------------------------
     1      (1,17,26)             2.50000000E-04
     2      (1,33,26)             2.50000000E-04
 -----------------------------------------------




 HEAD WILL BE SAVED ON UNIT 1028 AT END OF TIME STEP  179, STRESS PERIOD    2


  VOLUME BUDGET FOR ENTIRE MODEL AT END OF TIME STEP  179, STRESS PERIOD   2
  ---------------------------------------------------------------------------------------------------

     CUMULATIVE VOLUME      L**3       RATES FOR THIS TIME STEP      L**3/T          PACKAGE NAME    
     ------------------                 ------------------------                     ----------------

           IN:                                      IN:
           ---                                      ---
              STO-SS =           0.0000                STO-SS =           0.0000     STORAGE                          
                 WEL =           0.0000                   WEL =           0.0000     WEL1                             
                 WEL =           0.2790                   WEL =       5.0000E-04     WEL2                             

            TOTAL IN =           0.2790              TOTAL IN =       5.0000E-04

          OUT:                                     OUT:
          ----                                     ----
              STO-SS =           0.0000                STO-SS =           0.0000     STORAGE                          
                 WEL =           0.2790                   WEL =       5.0000E-04     WEL1                             
                 WEL =           0.0000                   WEL =           0.0000     WEL2                             

           TOTAL OUT =           0.2790             TOTAL OUT =       5.0000E-04

            IN - OUT =       4.0000E-11              IN - OUT =      -1.0842E-19

 PERCENT DISCREPANCY =           0.00     PERCENT DISCREPANCY =          -0.00




         TIME SUMMARY AT END OF TIME STEP  179 IN STRESS PERIOD    2
                    SECONDS     MINUTES      HOURS       DAYS        YEARS
                    -----------------------------------------------------------
   TIME STEP LENGTH 1.72800E+05  2880.0      48.000      2.0000     5.47570E-03
 STRESS PERIOD TIME 3.09312E+07 5.15520E+05  8592.0      358.00     0.98015    
         TOTAL TIME 4.82112E+07 8.03520E+05  13392.      558.00      1.5277    


end timestep


start timestep kper="2" kstp="180" mode="normal"

 UBDSV1 SAVING           STO-SS ON UNIT   1027 AT TIME STEP    180, STRESS PERIOD      2
 UBDSV1 SAVING     FLOW-JA-FACE ON UNIT   1027 AT TIME STEP    180, STRESS PERIOD      2

 WEL PACKAGE (WEL1) FLOW RATES   PERIOD      2   STEP      180
 -----------------------------------------------
   NUMBER   CELLID                    RATE      
 -----------------------------------------------
     1      (1,17,17)            -5.00000000E-05
     2      (1,33,17)            -5.00000000E-05
     3      (1,9,26)             -5.00000000E-05
     4      (1,17,35)            -5.00000000E-05
     5      (1,33,35)            -5.00000000E-05
     6      (1,26,26)            -5.00000000E-05
     7      (1,41,26)            -5.00000000E-05
     8      (1,4,39)             -5.00000000E-05
     9      (1,27,3)             -5.00000000E-05
     10     (1,46,46)            -5.00000000E-05
 -----------------------------------------------




 WEL PACKAGE (WEL2) FLOW RATES   PERIOD      2   STEP      180
 -----------------------------------------------
   NUMBER   CELLID                    RATE      
 -----------------------------------------------
     1      (1,17,26)             2.50000000E-04
     2      (1,33,26)             2.50000000E-04
 -----------------------------------------------




 HEAD WILL BE SAVED ON UNIT 1028 AT END OF TIME STEP  180, STRESS PERIOD    2


  VOLUME BUDGET FOR ENTIRE MODEL AT END OF TIME STEP  180, STRESS PERIOD   2
  ---------------------------------------------------------------------------------------------------

     CUMULATIVE VOLUME      L**3       RATES FOR THIS TIME STEP      L**3/T          PACKAGE NAME    
     ------------------                 ------------------------                     ----------------

           IN:                                      IN:
           ---                                      ---
              STO-SS =           0.0000                STO-SS =           0.0000     STORAGE                          
                 WEL =           0.0000                   WEL =           0.0000     WEL1                             
                 WEL =           0.2800                   WEL =       5.0000E-04     WEL2                             

            TOTAL IN =           0.2800              TOTAL IN =       5.0000E-04

          OUT:                                     OUT:
          ----                                     ----
              STO-SS =           0.0000                STO-SS =           0.0000     STORAGE                          
                 WEL =           0.2800                   WEL =       5.0000E-04     WEL1                             
                 WEL =           0.0000                   WEL =           0.0000     WEL2                             

           TOTAL OUT =           0.2800             TOTAL OUT =       5.0000E-04

            IN - OUT =       4.0000E-11              IN - OUT =      -1.0842E-19

 PERCENT DISCREPANCY =           0.00     PERCENT DISCREPANCY =          -0.00




         TIME SUMMARY AT END OF TIME STEP  180 IN STRESS PERIOD    2
                    SECONDS     MINUTES      HOURS       DAYS        YEARS
                    -----------------------------------------------------------
   TIME STEP LENGTH 1.72800E+05  2880.0      48.000      2.0000     5.47570E-03
 STRESS PERIOD TIME 3.11040E+07 5.18400E+05  8640.0      360.00     0.98563    
         TOTAL TIME 4.83840E+07 8.06400E+05  13440.      560.00      1.5332    


end timestep


start timestep kper="2" kstp="181" mode="normal"

 UBDSV1 SAVING           STO-SS ON UNIT   1027 AT TIME STEP    181, STRESS PERIOD      2
 UBDSV1 SAVING     FLOW-JA-FACE ON UNIT   1027 AT TIME STEP    181, STRESS PERIOD      2

 WEL PACKAGE (WEL1) FLOW RATES   PERIOD      2   STEP      181
 -----------------------------------------------
   NUMBER   CELLID                    RATE      
 -----------------------------------------------
     1      (1,17,17)            -5.00000000E-05
     2      (1,33,17)            -5.00000000E-05
     3      (1,9,26)             -5.00000000E-05
     4      (1,17,35)            -5.00000000E-05
     5      (1,33,35)            -5.00000000E-05
     6      (1,26,26)            -5.00000000E-05
     7      (1,41,26)            -5.00000000E-05
     8      (1,4,39)             -5.00000000E-05
     9      (1,27,3)             -5.00000000E-05
     10     (1,46,46)            -5.00000000E-05
 -----------------------------------------------




 WEL PACKAGE (WEL2) FLOW RATES   PERIOD      2   STEP      181
 -----------------------------------------------
   NUMBER   CELLID                    RATE      
 -----------------------------------------------
     1      (1,17,26)             2.50000000E-04
     2      (1,33,26)             2.50000000E-04
 -----------------------------------------------




 HEAD WILL BE SAVED ON UNIT 1028 AT END OF TIME STEP  181, STRESS PERIOD    2


  VOLUME BUDGET FOR ENTIRE MODEL AT END OF TIME STEP  181, STRESS PERIOD   2
  ---------------------------------------------------------------------------------------------------

     CUMULATIVE VOLUME      L**3       RATES FOR THIS TIME STEP      L**3/T          PACKAGE NAME    
     ------------------                 ------------------------                     ----------------

           IN:                                      IN:
           ---                                      ---
              STO-SS =           0.0000                STO-SS =           0.0000     STORAGE                          
                 WEL =           0.0000                   WEL =           0.0000     WEL1                             
                 WEL =           0.2810                   WEL =       5.0000E-04     WEL2                             

            TOTAL IN =           0.2810              TOTAL IN =       5.0000E-04

          OUT:                                     OUT:
          ----                                     ----
              STO-SS =           0.0000                STO-SS =           0.0000     STORAGE                          
                 WEL =           0.2810                   WEL =       5.0000E-04     WEL1                             
                 WEL =           0.0000                   WEL =           0.0000     WEL2                             

           TOTAL OUT =           0.2810             TOTAL OUT =       5.0000E-04

            IN - OUT =       4.0000E-11              IN - OUT =      -1.0842E-19

 PERCENT DISCREPANCY =           0.00     PERCENT DISCREPANCY =          -0.00




         TIME SUMMARY AT END OF TIME STEP  181 IN STRESS PERIOD    2
                    SECONDS     MINUTES      HOURS       DAYS        YEARS
                    -----------------------------------------------------------
   TIME STEP LENGTH 1.72800E+05  2880.0      48.000      2.0000     5.47570E-03
 STRESS PERIOD TIME 3.12768E+07 5.21280E+05  8688.0      362.00     0.99110    
         TOTAL TIME 4.85568E+07 8.09280E+05  13488.      562.00      1.5387    


end timestep


start timestep kper="2" kstp="182" mode="normal"

 UBDSV1 SAVING           STO-SS ON UNIT   1027 AT TIME STEP    182, STRESS PERIOD      2
 UBDSV1 SAVING     FLOW-JA-FACE ON UNIT   1027 AT TIME STEP    182, STRESS PERIOD      2

 WEL PACKAGE (WEL1) FLOW RATES   PERIOD      2   STEP      182
 -----------------------------------------------
   NUMBER   CELLID                    RATE      
 -----------------------------------------------
     1      (1,17,17)            -5.00000000E-05
     2      (1,33,17)            -5.00000000E-05
     3      (1,9,26)             -5.00000000E-05
     4      (1,17,35)            -5.00000000E-05
     5      (1,33,35)            -5.00000000E-05
     6      (1,26,26)            -5.00000000E-05
     7      (1,41,26)            -5.00000000E-05
     8      (1,4,39)             -5.00000000E-05
     9      (1,27,3)             -5.00000000E-05
     10     (1,46,46)            -5.00000000E-05
 -----------------------------------------------




 WEL PACKAGE (WEL2) FLOW RATES   PERIOD      2   STEP      182
 -----------------------------------------------
   NUMBER   CELLID                    RATE      
 -----------------------------------------------
     1      (1,17,26)             2.50000000E-04
     2      (1,33,26)             2.50000000E-04
 -----------------------------------------------




 HEAD WILL BE SAVED ON UNIT 1028 AT END OF TIME STEP  182, STRESS PERIOD    2


  VOLUME BUDGET FOR ENTIRE MODEL AT END OF TIME STEP  182, STRESS PERIOD   2
  ---------------------------------------------------------------------------------------------------

     CUMULATIVE VOLUME      L**3       RATES FOR THIS TIME STEP      L**3/T          PACKAGE NAME    
     ------------------                 ------------------------                     ----------------

           IN:                                      IN:
           ---                                      ---
              STO-SS =           0.0000                STO-SS =           0.0000     STORAGE                          
                 WEL =           0.0000                   WEL =           0.0000     WEL1                             
                 WEL =           0.2820                   WEL =       5.0000E-04     WEL2                             

            TOTAL IN =           0.2820              TOTAL IN =       5.0000E-04

          OUT:                                     OUT:
          ----                                     ----
              STO-SS =           0.0000                STO-SS =           0.0000     STORAGE                          
                 WEL =           0.2820                   WEL =       5.0000E-04     WEL1                             
                 WEL =           0.0000                   WEL =           0.0000     WEL2                             

           TOTAL OUT =           0.2820             TOTAL OUT =       5.0000E-04

            IN - OUT =       4.0000E-11              IN - OUT =      -1.0842E-19

 PERCENT DISCREPANCY =           0.00     PERCENT DISCREPANCY =          -0.00




         TIME SUMMARY AT END OF TIME STEP  182 IN STRESS PERIOD    2
                    SECONDS     MINUTES      HOURS       DAYS        YEARS
                    -----------------------------------------------------------
   TIME STEP LENGTH 1.72800E+05  2880.0      48.000      2.0000     5.47570E-03
 STRESS PERIOD TIME 3.14496E+07 5.24160E+05  8736.0      364.00     0.99658    
         TOTAL TIME 4.87296E+07 8.12160E+05  13536.      564.00      1.5441    


end timestep


start timestep kper="2" kstp="183" mode="normal"

 UBDSV1 SAVING           STO-SS ON UNIT   1027 AT TIME STEP    183, STRESS PERIOD      2
 UBDSV1 SAVING     FLOW-JA-FACE ON UNIT   1027 AT TIME STEP    183, STRESS PERIOD      2

 WEL PACKAGE (WEL1) FLOW RATES   PERIOD      2   STEP      183
 -----------------------------------------------
   NUMBER   CELLID                    RATE      
 -----------------------------------------------
     1      (1,17,17)            -5.00000000E-05
     2      (1,33,17)            -5.00000000E-05
     3      (1,9,26)             -5.00000000E-05
     4      (1,17,35)            -5.00000000E-05
     5      (1,33,35)            -5.00000000E-05
     6      (1,26,26)            -5.00000000E-05
     7      (1,41,26)            -5.00000000E-05
     8      (1,4,39)             -5.00000000E-05
     9      (1,27,3)             -5.00000000E-05
     10     (1,46,46)            -5.00000000E-05
 -----------------------------------------------




 WEL PACKAGE (WEL2) FLOW RATES   PERIOD      2   STEP      183
 -----------------------------------------------
   NUMBER   CELLID                    RATE      
 -----------------------------------------------
     1      (1,17,26)             2.50000000E-04
     2      (1,33,26)             2.50000000E-04
 -----------------------------------------------




 HEAD WILL BE SAVED ON UNIT 1028 AT END OF TIME STEP  183, STRESS PERIOD    2


  VOLUME BUDGET FOR ENTIRE MODEL AT END OF TIME STEP  183, STRESS PERIOD   2
  ---------------------------------------------------------------------------------------------------

     CUMULATIVE VOLUME      L**3       RATES FOR THIS TIME STEP      L**3/T          PACKAGE NAME    
     ------------------                 ------------------------                     ----------------

           IN:                                      IN:
           ---                                      ---
              STO-SS =           0.0000                STO-SS =           0.0000     STORAGE                          
                 WEL =           0.0000                   WEL =           0.0000     WEL1                             
                 WEL =           0.2830                   WEL =       5.0000E-04     WEL2                             

            TOTAL IN =           0.2830              TOTAL IN =       5.0000E-04

          OUT:                                     OUT:
          ----                                     ----
              STO-SS =           0.0000                STO-SS =           0.0000     STORAGE                          
                 WEL =           0.2830                   WEL =       5.0000E-04     WEL1                             
                 WEL =           0.0000                   WEL =           0.0000     WEL2                             

           TOTAL OUT =           0.2830             TOTAL OUT =       5.0000E-04

            IN - OUT =       4.0000E-11              IN - OUT =      -1.0842E-19

 PERCENT DISCREPANCY =           0.00     PERCENT DISCREPANCY =          -0.00




         TIME SUMMARY AT END OF TIME STEP  183 IN STRESS PERIOD    2
                    SECONDS     MINUTES      HOURS       DAYS        YEARS
                    -----------------------------------------------------------
   TIME STEP LENGTH 1.72800E+05  2880.0      48.000      2.0000     5.47570E-03
 STRESS PERIOD TIME 3.16224E+07 5.27040E+05  8784.0      366.00      1.0021    
         TOTAL TIME 4.89024E+07 8.15040E+05  13584.      566.00      1.5496    


end timestep


start timestep kper="2" kstp="184" mode="normal"

 UBDSV1 SAVING           STO-SS ON UNIT   1027 AT TIME STEP    184, STRESS PERIOD      2
 UBDSV1 SAVING     FLOW-JA-FACE ON UNIT   1027 AT TIME STEP    184, STRESS PERIOD      2

 WEL PACKAGE (WEL1) FLOW RATES   PERIOD      2   STEP      184
 -----------------------------------------------
   NUMBER   CELLID                    RATE      
 -----------------------------------------------
     1      (1,17,17)            -5.00000000E-05
     2      (1,33,17)            -5.00000000E-05
     3      (1,9,26)             -5.00000000E-05
     4      (1,17,35)            -5.00000000E-05
     5      (1,33,35)            -5.00000000E-05
     6      (1,26,26)            -5.00000000E-05
     7      (1,41,26)            -5.00000000E-05
     8      (1,4,39)             -5.00000000E-05
     9      (1,27,3)             -5.00000000E-05
     10     (1,46,46)            -5.00000000E-05
 -----------------------------------------------




 WEL PACKAGE (WEL2) FLOW RATES   PERIOD      2   STEP      184
 -----------------------------------------------
   NUMBER   CELLID                    RATE      
 -----------------------------------------------
     1      (1,17,26)             2.50000000E-04
     2      (1,33,26)             2.50000000E-04
 -----------------------------------------------




 HEAD WILL BE SAVED ON UNIT 1028 AT END OF TIME STEP  184, STRESS PERIOD    2


  VOLUME BUDGET FOR ENTIRE MODEL AT END OF TIME STEP  184, STRESS PERIOD   2
  ---------------------------------------------------------------------------------------------------

     CUMULATIVE VOLUME      L**3       RATES FOR THIS TIME STEP      L**3/T          PACKAGE NAME    
     ------------------                 ------------------------                     ----------------

           IN:                                      IN:
           ---                                      ---
              STO-SS =           0.0000                STO-SS =           0.0000     STORAGE                          
                 WEL =           0.0000                   WEL =           0.0000     WEL1                             
                 WEL =           0.2840                   WEL =       5.0000E-04     WEL2                             

            TOTAL IN =           0.2840              TOTAL IN =       5.0000E-04

          OUT:                                     OUT:
          ----                                     ----
              STO-SS =           0.0000                STO-SS =           0.0000     STORAGE                          
                 WEL =           0.2840                   WEL =       5.0000E-04     WEL1                             
                 WEL =           0.0000                   WEL =           0.0000     WEL2                             

           TOTAL OUT =           0.2840             TOTAL OUT =       5.0000E-04

            IN - OUT =       4.0000E-11              IN - OUT =      -1.0842E-19

 PERCENT DISCREPANCY =           0.00     PERCENT DISCREPANCY =          -0.00




         TIME SUMMARY AT END OF TIME STEP  184 IN STRESS PERIOD    2
                    SECONDS     MINUTES      HOURS       DAYS        YEARS
                    -----------------------------------------------------------
   TIME STEP LENGTH 1.72800E+05  2880.0      48.000      2.0000     5.47570E-03
 STRESS PERIOD TIME 3.17952E+07 5.29920E+05  8832.0      368.00      1.0075    
         TOTAL TIME 4.90752E+07 8.17920E+05  13632.      568.00      1.5551    


end timestep


start timestep kper="2" kstp="185" mode="normal"

 UBDSV1 SAVING           STO-SS ON UNIT   1027 AT TIME STEP    185, STRESS PERIOD      2
 UBDSV1 SAVING     FLOW-JA-FACE ON UNIT   1027 AT TIME STEP    185, STRESS PERIOD      2

 WEL PACKAGE (WEL1) FLOW RATES   PERIOD      2   STEP      185
 -----------------------------------------------
   NUMBER   CELLID                    RATE      
 -----------------------------------------------
     1      (1,17,17)            -5.00000000E-05
     2      (1,33,17)            -5.00000000E-05
     3      (1,9,26)             -5.00000000E-05
     4      (1,17,35)            -5.00000000E-05
     5      (1,33,35)            -5.00000000E-05
     6      (1,26,26)            -5.00000000E-05
     7      (1,41,26)            -5.00000000E-05
     8      (1,4,39)             -5.00000000E-05
     9      (1,27,3)             -5.00000000E-05
     10     (1,46,46)            -5.00000000E-05
 -----------------------------------------------




 WEL PACKAGE (WEL2) FLOW RATES   PERIOD      2   STEP      185
 -----------------------------------------------
   NUMBER   CELLID                    RATE      
 -----------------------------------------------
     1      (1,17,26)             2.50000000E-04
     2      (1,33,26)             2.50000000E-04
 -----------------------------------------------




 HEAD WILL BE SAVED ON UNIT 1028 AT END OF TIME STEP  185, STRESS PERIOD    2


  VOLUME BUDGET FOR ENTIRE MODEL AT END OF TIME STEP  185, STRESS PERIOD   2
  ---------------------------------------------------------------------------------------------------

     CUMULATIVE VOLUME      L**3       RATES FOR THIS TIME STEP      L**3/T          PACKAGE NAME    
     ------------------                 ------------------------                     ----------------

           IN:                                      IN:
           ---                                      ---
              STO-SS =           0.0000                STO-SS =           0.0000     STORAGE                          
                 WEL =           0.0000                   WEL =           0.0000     WEL1                             
                 WEL =           0.2850                   WEL =       5.0000E-04     WEL2                             

            TOTAL IN =           0.2850              TOTAL IN =       5.0000E-04

          OUT:                                     OUT:
          ----                                     ----
              STO-SS =           0.0000                STO-SS =           0.0000     STORAGE                          
                 WEL =           0.2850                   WEL =       5.0000E-04     WEL1                             
                 WEL =           0.0000                   WEL =           0.0000     WEL2                             

           TOTAL OUT =           0.2850             TOTAL OUT =       5.0000E-04

            IN - OUT =       4.0000E-11              IN - OUT =      -1.0842E-19

 PERCENT DISCREPANCY =           0.00     PERCENT DISCREPANCY =          -0.00




         TIME SUMMARY AT END OF TIME STEP  185 IN STRESS PERIOD    2
                    SECONDS     MINUTES      HOURS       DAYS        YEARS
                    -----------------------------------------------------------
   TIME STEP LENGTH 1.72800E+05  2880.0      48.000      2.0000     5.47570E-03
 STRESS PERIOD TIME 3.19680E+07 5.32800E+05  8880.0      370.00      1.0130    
         TOTAL TIME 4.92480E+07 8.20800E+05  13680.      570.00      1.5606    


end timestep


start timestep kper="2" kstp="186" mode="normal"

 UBDSV1 SAVING           STO-SS ON UNIT   1027 AT TIME STEP    186, STRESS PERIOD      2
 UBDSV1 SAVING     FLOW-JA-FACE ON UNIT   1027 AT TIME STEP    186, STRESS PERIOD      2

 WEL PACKAGE (WEL1) FLOW RATES   PERIOD      2   STEP      186
 -----------------------------------------------
   NUMBER   CELLID                    RATE      
 -----------------------------------------------
     1      (1,17,17)            -5.00000000E-05
     2      (1,33,17)            -5.00000000E-05
     3      (1,9,26)             -5.00000000E-05
     4      (1,17,35)            -5.00000000E-05
     5      (1,33,35)            -5.00000000E-05
     6      (1,26,26)            -5.00000000E-05
     7      (1,41,26)            -5.00000000E-05
     8      (1,4,39)             -5.00000000E-05
     9      (1,27,3)             -5.00000000E-05
     10     (1,46,46)            -5.00000000E-05
 -----------------------------------------------




 WEL PACKAGE (WEL2) FLOW RATES   PERIOD      2   STEP      186
 -----------------------------------------------
   NUMBER   CELLID                    RATE      
 -----------------------------------------------
     1      (1,17,26)             2.50000000E-04
     2      (1,33,26)             2.50000000E-04
 -----------------------------------------------




 HEAD WILL BE SAVED ON UNIT 1028 AT END OF TIME STEP  186, STRESS PERIOD    2


  VOLUME BUDGET FOR ENTIRE MODEL AT END OF TIME STEP  186, STRESS PERIOD   2
  ---------------------------------------------------------------------------------------------------

     CUMULATIVE VOLUME      L**3       RATES FOR THIS TIME STEP      L**3/T          PACKAGE NAME    
     ------------------                 ------------------------                     ----------------

           IN:                                      IN:
           ---                                      ---
              STO-SS =           0.0000                STO-SS =           0.0000     STORAGE                          
                 WEL =           0.0000                   WEL =           0.0000     WEL1                             
                 WEL =           0.2860                   WEL =       5.0000E-04     WEL2                             

            TOTAL IN =           0.2860              TOTAL IN =       5.0000E-04

          OUT:                                     OUT:
          ----                                     ----
              STO-SS =           0.0000                STO-SS =           0.0000     STORAGE                          
                 WEL =           0.2860                   WEL =       5.0000E-04     WEL1                             
                 WEL =           0.0000                   WEL =           0.0000     WEL2                             

           TOTAL OUT =           0.2860             TOTAL OUT =       5.0000E-04

            IN - OUT =       4.0000E-11              IN - OUT =      -1.0842E-19

 PERCENT DISCREPANCY =           0.00     PERCENT DISCREPANCY =          -0.00




         TIME SUMMARY AT END OF TIME STEP  186 IN STRESS PERIOD    2
                    SECONDS     MINUTES      HOURS       DAYS        YEARS
                    -----------------------------------------------------------
   TIME STEP LENGTH 1.72800E+05  2880.0      48.000      2.0000     5.47570E-03
 STRESS PERIOD TIME 3.21408E+07 5.35680E+05  8928.0      372.00      1.0185    
         TOTAL TIME 4.94208E+07 8.23680E+05  13728.      572.00      1.5661    


end timestep


start timestep kper="2" kstp="187" mode="normal"

 UBDSV1 SAVING           STO-SS ON UNIT   1027 AT TIME STEP    187, STRESS PERIOD      2
 UBDSV1 SAVING     FLOW-JA-FACE ON UNIT   1027 AT TIME STEP    187, STRESS PERIOD      2

 WEL PACKAGE (WEL1) FLOW RATES   PERIOD      2   STEP      187
 -----------------------------------------------
   NUMBER   CELLID                    RATE      
 -----------------------------------------------
     1      (1,17,17)            -5.00000000E-05
     2      (1,33,17)            -5.00000000E-05
     3      (1,9,26)             -5.00000000E-05
     4      (1,17,35)            -5.00000000E-05
     5      (1,33,35)            -5.00000000E-05
     6      (1,26,26)            -5.00000000E-05
     7      (1,41,26)            -5.00000000E-05
     8      (1,4,39)             -5.00000000E-05
     9      (1,27,3)             -5.00000000E-05
     10     (1,46,46)            -5.00000000E-05
 -----------------------------------------------




 WEL PACKAGE (WEL2) FLOW RATES   PERIOD      2   STEP      187
 -----------------------------------------------
   NUMBER   CELLID                    RATE      
 -----------------------------------------------
     1      (1,17,26)             2.50000000E-04
     2      (1,33,26)             2.50000000E-04
 -----------------------------------------------




 HEAD WILL BE SAVED ON UNIT 1028 AT END OF TIME STEP  187, STRESS PERIOD    2


  VOLUME BUDGET FOR ENTIRE MODEL AT END OF TIME STEP  187, STRESS PERIOD   2
  ---------------------------------------------------------------------------------------------------

     CUMULATIVE VOLUME      L**3       RATES FOR THIS TIME STEP      L**3/T          PACKAGE NAME    
     ------------------                 ------------------------                     ----------------

           IN:                                      IN:
           ---                                      ---
              STO-SS =           0.0000                STO-SS =           0.0000     STORAGE                          
                 WEL =           0.0000                   WEL =           0.0000     WEL1                             
                 WEL =           0.2870                   WEL =       5.0000E-04     WEL2                             

            TOTAL IN =           0.2870              TOTAL IN =       5.0000E-04

          OUT:                                     OUT:
          ----                                     ----
              STO-SS =           0.0000                STO-SS =           0.0000     STORAGE                          
                 WEL =           0.2870                   WEL =       5.0000E-04     WEL1                             
                 WEL =           0.0000                   WEL =           0.0000     WEL2                             

           TOTAL OUT =           0.2870             TOTAL OUT =       5.0000E-04

            IN - OUT =       4.0000E-11              IN - OUT =      -1.0842E-19

 PERCENT DISCREPANCY =           0.00     PERCENT DISCREPANCY =          -0.00




         TIME SUMMARY AT END OF TIME STEP  187 IN STRESS PERIOD    2
                    SECONDS     MINUTES      HOURS       DAYS        YEARS
                    -----------------------------------------------------------
   TIME STEP LENGTH 1.72800E+05  2880.0      48.000      2.0000     5.47570E-03
 STRESS PERIOD TIME 3.23136E+07 5.38560E+05  8976.0      374.00      1.0240    
         TOTAL TIME 4.95936E+07 8.26560E+05  13776.      574.00      1.5715    


end timestep


start timestep kper="2" kstp="188" mode="normal"

 UBDSV1 SAVING           STO-SS ON UNIT   1027 AT TIME STEP    188, STRESS PERIOD      2
 UBDSV1 SAVING     FLOW-JA-FACE ON UNIT   1027 AT TIME STEP    188, STRESS PERIOD      2

 WEL PACKAGE (WEL1) FLOW RATES   PERIOD      2   STEP      188
 -----------------------------------------------
   NUMBER   CELLID                    RATE      
 -----------------------------------------------
     1      (1,17,17)            -5.00000000E-05
     2      (1,33,17)            -5.00000000E-05
     3      (1,9,26)             -5.00000000E-05
     4      (1,17,35)            -5.00000000E-05
     5      (1,33,35)            -5.00000000E-05
     6      (1,26,26)            -5.00000000E-05
     7      (1,41,26)            -5.00000000E-05
     8      (1,4,39)             -5.00000000E-05
     9      (1,27,3)             -5.00000000E-05
     10     (1,46,46)            -5.00000000E-05
 -----------------------------------------------




 WEL PACKAGE (WEL2) FLOW RATES   PERIOD      2   STEP      188
 -----------------------------------------------
   NUMBER   CELLID                    RATE      
 -----------------------------------------------
     1      (1,17,26)             2.50000000E-04
     2      (1,33,26)             2.50000000E-04
 -----------------------------------------------




 HEAD WILL BE SAVED ON UNIT 1028 AT END OF TIME STEP  188, STRESS PERIOD    2


  VOLUME BUDGET FOR ENTIRE MODEL AT END OF TIME STEP  188, STRESS PERIOD   2
  ---------------------------------------------------------------------------------------------------

     CUMULATIVE VOLUME      L**3       RATES FOR THIS TIME STEP      L**3/T          PACKAGE NAME    
     ------------------                 ------------------------                     ----------------

           IN:                                      IN:
           ---                                      ---
              STO-SS =           0.0000                STO-SS =           0.0000     STORAGE                          
                 WEL =           0.0000                   WEL =           0.0000     WEL1                             
                 WEL =           0.2880                   WEL =       5.0000E-04     WEL2                             

            TOTAL IN =           0.2880              TOTAL IN =       5.0000E-04

          OUT:                                     OUT:
          ----                                     ----
              STO-SS =           0.0000                STO-SS =           0.0000     STORAGE                          
                 WEL =           0.2880                   WEL =       5.0000E-04     WEL1                             
                 WEL =           0.0000                   WEL =           0.0000     WEL2                             

           TOTAL OUT =           0.2880             TOTAL OUT =       5.0000E-04

            IN - OUT =       4.0000E-11              IN - OUT =      -1.0842E-19

 PERCENT DISCREPANCY =           0.00     PERCENT DISCREPANCY =          -0.00




         TIME SUMMARY AT END OF TIME STEP  188 IN STRESS PERIOD    2
                    SECONDS     MINUTES      HOURS       DAYS        YEARS
                    -----------------------------------------------------------
   TIME STEP LENGTH 1.72800E+05  2880.0      48.000      2.0000     5.47570E-03
 STRESS PERIOD TIME 3.24864E+07 5.41440E+05  9024.0      376.00      1.0294    
         TOTAL TIME 4.97664E+07 8.29440E+05  13824.      576.00      1.5770    


end timestep


start timestep kper="2" kstp="189" mode="normal"

 UBDSV1 SAVING           STO-SS ON UNIT   1027 AT TIME STEP    189, STRESS PERIOD      2
 UBDSV1 SAVING     FLOW-JA-FACE ON UNIT   1027 AT TIME STEP    189, STRESS PERIOD      2

 WEL PACKAGE (WEL1) FLOW RATES   PERIOD      2   STEP      189
 -----------------------------------------------
   NUMBER   CELLID                    RATE      
 -----------------------------------------------
     1      (1,17,17)            -5.00000000E-05
     2      (1,33,17)            -5.00000000E-05
     3      (1,9,26)             -5.00000000E-05
     4      (1,17,35)            -5.00000000E-05
     5      (1,33,35)            -5.00000000E-05
     6      (1,26,26)            -5.00000000E-05
     7      (1,41,26)            -5.00000000E-05
     8      (1,4,39)             -5.00000000E-05
     9      (1,27,3)             -5.00000000E-05
     10     (1,46,46)            -5.00000000E-05
 -----------------------------------------------




 WEL PACKAGE (WEL2) FLOW RATES   PERIOD      2   STEP      189
 -----------------------------------------------
   NUMBER   CELLID                    RATE      
 -----------------------------------------------
     1      (1,17,26)             2.50000000E-04
     2      (1,33,26)             2.50000000E-04
 -----------------------------------------------




 HEAD WILL BE SAVED ON UNIT 1028 AT END OF TIME STEP  189, STRESS PERIOD    2


  VOLUME BUDGET FOR ENTIRE MODEL AT END OF TIME STEP  189, STRESS PERIOD   2
  ---------------------------------------------------------------------------------------------------

     CUMULATIVE VOLUME      L**3       RATES FOR THIS TIME STEP      L**3/T          PACKAGE NAME    
     ------------------                 ------------------------                     ----------------

           IN:                                      IN:
           ---                                      ---
              STO-SS =           0.0000                STO-SS =           0.0000     STORAGE                          
                 WEL =           0.0000                   WEL =           0.0000     WEL1                             
                 WEL =           0.2890                   WEL =       5.0000E-04     WEL2                             

            TOTAL IN =           0.2890              TOTAL IN =       5.0000E-04

          OUT:                                     OUT:
          ----                                     ----
              STO-SS =           0.0000                STO-SS =           0.0000     STORAGE                          
                 WEL =           0.2890                   WEL =       5.0000E-04     WEL1                             
                 WEL =           0.0000                   WEL =           0.0000     WEL2                             

           TOTAL OUT =           0.2890             TOTAL OUT =       5.0000E-04

            IN - OUT =       4.0000E-11              IN - OUT =      -1.0842E-19

 PERCENT DISCREPANCY =           0.00     PERCENT DISCREPANCY =          -0.00




         TIME SUMMARY AT END OF TIME STEP  189 IN STRESS PERIOD    2
                    SECONDS     MINUTES      HOURS       DAYS        YEARS
                    -----------------------------------------------------------
   TIME STEP LENGTH 1.72800E+05  2880.0      48.000      2.0000     5.47570E-03
 STRESS PERIOD TIME 3.26592E+07 5.44320E+05  9072.0      378.00      1.0349    
         TOTAL TIME 4.99392E+07 8.32320E+05  13872.      578.00      1.5825    


end timestep


start timestep kper="2" kstp="190" mode="normal"

 UBDSV1 SAVING           STO-SS ON UNIT   1027 AT TIME STEP    190, STRESS PERIOD      2
 UBDSV1 SAVING     FLOW-JA-FACE ON UNIT   1027 AT TIME STEP    190, STRESS PERIOD      2

 WEL PACKAGE (WEL1) FLOW RATES   PERIOD      2   STEP      190
 -----------------------------------------------
   NUMBER   CELLID                    RATE      
 -----------------------------------------------
     1      (1,17,17)            -5.00000000E-05
     2      (1,33,17)            -5.00000000E-05
     3      (1,9,26)             -5.00000000E-05
     4      (1,17,35)            -5.00000000E-05
     5      (1,33,35)            -5.00000000E-05
     6      (1,26,26)            -5.00000000E-05
     7      (1,41,26)            -5.00000000E-05
     8      (1,4,39)             -5.00000000E-05
     9      (1,27,3)             -5.00000000E-05
     10     (1,46,46)            -5.00000000E-05
 -----------------------------------------------




 WEL PACKAGE (WEL2) FLOW RATES   PERIOD      2   STEP      190
 -----------------------------------------------
   NUMBER   CELLID                    RATE      
 -----------------------------------------------
     1      (1,17,26)             2.50000000E-04
     2      (1,33,26)             2.50000000E-04
 -----------------------------------------------




 HEAD WILL BE SAVED ON UNIT 1028 AT END OF TIME STEP  190, STRESS PERIOD    2


  VOLUME BUDGET FOR ENTIRE MODEL AT END OF TIME STEP  190, STRESS PERIOD   2
  ---------------------------------------------------------------------------------------------------

     CUMULATIVE VOLUME      L**3       RATES FOR THIS TIME STEP      L**3/T          PACKAGE NAME    
     ------------------                 ------------------------                     ----------------

           IN:                                      IN:
           ---                                      ---
              STO-SS =           0.0000                STO-SS =           0.0000     STORAGE                          
                 WEL =           0.0000                   WEL =           0.0000     WEL1                             
                 WEL =           0.2900                   WEL =       5.0000E-04     WEL2                             

            TOTAL IN =           0.2900              TOTAL IN =       5.0000E-04

          OUT:                                     OUT:
          ----                                     ----
              STO-SS =           0.0000                STO-SS =           0.0000     STORAGE                          
                 WEL =           0.2900                   WEL =       5.0000E-04     WEL1                             
                 WEL =           0.0000                   WEL =           0.0000     WEL2                             

           TOTAL OUT =           0.2900             TOTAL OUT =       5.0000E-04

            IN - OUT =       4.0000E-11              IN - OUT =      -1.0842E-19

 PERCENT DISCREPANCY =           0.00     PERCENT DISCREPANCY =          -0.00




         TIME SUMMARY AT END OF TIME STEP  190 IN STRESS PERIOD    2
                    SECONDS     MINUTES      HOURS       DAYS        YEARS
                    -----------------------------------------------------------
   TIME STEP LENGTH 1.72800E+05  2880.0      48.000      2.0000     5.47570E-03
 STRESS PERIOD TIME 3.28320E+07 5.47200E+05  9120.0      380.00      1.0404    
         TOTAL TIME 5.01120E+07 8.35200E+05  13920.      580.00      1.5880    


end timestep


start timestep kper="2" kstp="191" mode="normal"

 UBDSV1 SAVING           STO-SS ON UNIT   1027 AT TIME STEP    191, STRESS PERIOD      2
 UBDSV1 SAVING     FLOW-JA-FACE ON UNIT   1027 AT TIME STEP    191, STRESS PERIOD      2

 WEL PACKAGE (WEL1) FLOW RATES   PERIOD      2   STEP      191
 -----------------------------------------------
   NUMBER   CELLID                    RATE      
 -----------------------------------------------
     1      (1,17,17)            -5.00000000E-05
     2      (1,33,17)            -5.00000000E-05
     3      (1,9,26)             -5.00000000E-05
     4      (1,17,35)            -5.00000000E-05
     5      (1,33,35)            -5.00000000E-05
     6      (1,26,26)            -5.00000000E-05
     7      (1,41,26)            -5.00000000E-05
     8      (1,4,39)             -5.00000000E-05
     9      (1,27,3)             -5.00000000E-05
     10     (1,46,46)            -5.00000000E-05
 -----------------------------------------------




 WEL PACKAGE (WEL2) FLOW RATES   PERIOD      2   STEP      191
 -----------------------------------------------
   NUMBER   CELLID                    RATE      
 -----------------------------------------------
     1      (1,17,26)             2.50000000E-04
     2      (1,33,26)             2.50000000E-04
 -----------------------------------------------




 HEAD WILL BE SAVED ON UNIT 1028 AT END OF TIME STEP  191, STRESS PERIOD    2


  VOLUME BUDGET FOR ENTIRE MODEL AT END OF TIME STEP  191, STRESS PERIOD   2
  ---------------------------------------------------------------------------------------------------

     CUMULATIVE VOLUME      L**3       RATES FOR THIS TIME STEP      L**3/T          PACKAGE NAME    
     ------------------                 ------------------------                     ----------------

           IN:                                      IN:
           ---                                      ---
              STO-SS =           0.0000                STO-SS =           0.0000     STORAGE                          
                 WEL =           0.0000                   WEL =           0.0000     WEL1                             
                 WEL =           0.2910                   WEL =       5.0000E-04     WEL2                             

            TOTAL IN =           0.2910              TOTAL IN =       5.0000E-04

          OUT:                                     OUT:
          ----                                     ----
              STO-SS =           0.0000                STO-SS =           0.0000     STORAGE                          
                 WEL =           0.2910                   WEL =       5.0000E-04     WEL1                             
                 WEL =           0.0000                   WEL =           0.0000     WEL2                             

           TOTAL OUT =           0.2910             TOTAL OUT =       5.0000E-04

            IN - OUT =       4.0000E-11              IN - OUT =      -1.0842E-19

 PERCENT DISCREPANCY =           0.00     PERCENT DISCREPANCY =          -0.00




         TIME SUMMARY AT END OF TIME STEP  191 IN STRESS PERIOD    2
                    SECONDS     MINUTES      HOURS       DAYS        YEARS
                    -----------------------------------------------------------
   TIME STEP LENGTH 1.72800E+05  2880.0      48.000      2.0000     5.47570E-03
 STRESS PERIOD TIME 3.30048E+07 5.50080E+05  9168.0      382.00      1.0459    
         TOTAL TIME 5.02848E+07 8.38080E+05  13968.      582.00      1.5934    


end timestep


start timestep kper="2" kstp="192" mode="normal"

 UBDSV1 SAVING           STO-SS ON UNIT   1027 AT TIME STEP    192, STRESS PERIOD      2
 UBDSV1 SAVING     FLOW-JA-FACE ON UNIT   1027 AT TIME STEP    192, STRESS PERIOD      2

 WEL PACKAGE (WEL1) FLOW RATES   PERIOD      2   STEP      192
 -----------------------------------------------
   NUMBER   CELLID                    RATE      
 -----------------------------------------------
     1      (1,17,17)            -5.00000000E-05
     2      (1,33,17)            -5.00000000E-05
     3      (1,9,26)             -5.00000000E-05
     4      (1,17,35)            -5.00000000E-05
     5      (1,33,35)            -5.00000000E-05
     6      (1,26,26)            -5.00000000E-05
     7      (1,41,26)            -5.00000000E-05
     8      (1,4,39)             -5.00000000E-05
     9      (1,27,3)             -5.00000000E-05
     10     (1,46,46)            -5.00000000E-05
 -----------------------------------------------




 WEL PACKAGE (WEL2) FLOW RATES   PERIOD      2   STEP      192
 -----------------------------------------------
   NUMBER   CELLID                    RATE      
 -----------------------------------------------
     1      (1,17,26)             2.50000000E-04
     2      (1,33,26)             2.50000000E-04
 -----------------------------------------------




 HEAD WILL BE SAVED ON UNIT 1028 AT END OF TIME STEP  192, STRESS PERIOD    2


  VOLUME BUDGET FOR ENTIRE MODEL AT END OF TIME STEP  192, STRESS PERIOD   2
  ---------------------------------------------------------------------------------------------------

     CUMULATIVE VOLUME      L**3       RATES FOR THIS TIME STEP      L**3/T          PACKAGE NAME    
     ------------------                 ------------------------                     ----------------

           IN:                                      IN:
           ---                                      ---
              STO-SS =           0.0000                STO-SS =           0.0000     STORAGE                          
                 WEL =           0.0000                   WEL =           0.0000     WEL1                             
                 WEL =           0.2920                   WEL =       5.0000E-04     WEL2                             

            TOTAL IN =           0.2920              TOTAL IN =       5.0000E-04

          OUT:                                     OUT:
          ----                                     ----
              STO-SS =           0.0000                STO-SS =           0.0000     STORAGE                          
                 WEL =           0.2920                   WEL =       5.0000E-04     WEL1                             
                 WEL =           0.0000                   WEL =           0.0000     WEL2                             

           TOTAL OUT =           0.2920             TOTAL OUT =       5.0000E-04

            IN - OUT =       4.0000E-11              IN - OUT =      -1.0842E-19

 PERCENT DISCREPANCY =           0.00     PERCENT DISCREPANCY =          -0.00




         TIME SUMMARY AT END OF TIME STEP  192 IN STRESS PERIOD    2
                    SECONDS     MINUTES      HOURS       DAYS        YEARS
                    -----------------------------------------------------------
   TIME STEP LENGTH 1.72800E+05  2880.0      48.000      2.0000     5.47570E-03
 STRESS PERIOD TIME 3.31776E+07 5.52960E+05  9216.0      384.00      1.0513    
         TOTAL TIME 5.04576E+07 8.40960E+05  14016.      584.00      1.5989    


end timestep


start timestep kper="2" kstp="193" mode="normal"

 UBDSV1 SAVING           STO-SS ON UNIT   1027 AT TIME STEP    193, STRESS PERIOD      2
 UBDSV1 SAVING     FLOW-JA-FACE ON UNIT   1027 AT TIME STEP    193, STRESS PERIOD      2

 WEL PACKAGE (WEL1) FLOW RATES   PERIOD      2   STEP      193
 -----------------------------------------------
   NUMBER   CELLID                    RATE      
 -----------------------------------------------
     1      (1,17,17)            -5.00000000E-05
     2      (1,33,17)            -5.00000000E-05
     3      (1,9,26)             -5.00000000E-05
     4      (1,17,35)            -5.00000000E-05
     5      (1,33,35)            -5.00000000E-05
     6      (1,26,26)            -5.00000000E-05
     7      (1,41,26)            -5.00000000E-05
     8      (1,4,39)             -5.00000000E-05
     9      (1,27,3)             -5.00000000E-05
     10     (1,46,46)            -5.00000000E-05
 -----------------------------------------------




 WEL PACKAGE (WEL2) FLOW RATES   PERIOD      2   STEP      193
 -----------------------------------------------
   NUMBER   CELLID                    RATE      
 -----------------------------------------------
     1      (1,17,26)             2.50000000E-04
     2      (1,33,26)             2.50000000E-04
 -----------------------------------------------




 HEAD WILL BE SAVED ON UNIT 1028 AT END OF TIME STEP  193, STRESS PERIOD    2


  VOLUME BUDGET FOR ENTIRE MODEL AT END OF TIME STEP  193, STRESS PERIOD   2
  ---------------------------------------------------------------------------------------------------

     CUMULATIVE VOLUME      L**3       RATES FOR THIS TIME STEP      L**3/T          PACKAGE NAME    
     ------------------                 ------------------------                     ----------------

           IN:                                      IN:
           ---                                      ---
              STO-SS =           0.0000                STO-SS =           0.0000     STORAGE                          
                 WEL =           0.0000                   WEL =           0.0000     WEL1                             
                 WEL =           0.2930                   WEL =       5.0000E-04     WEL2                             

            TOTAL IN =           0.2930              TOTAL IN =       5.0000E-04

          OUT:                                     OUT:
          ----                                     ----
              STO-SS =           0.0000                STO-SS =           0.0000     STORAGE                          
                 WEL =           0.2930                   WEL =       5.0000E-04     WEL1                             
                 WEL =           0.0000                   WEL =           0.0000     WEL2                             

           TOTAL OUT =           0.2930             TOTAL OUT =       5.0000E-04

            IN - OUT =       4.0000E-11              IN - OUT =      -1.0842E-19

 PERCENT DISCREPANCY =           0.00     PERCENT DISCREPANCY =          -0.00




         TIME SUMMARY AT END OF TIME STEP  193 IN STRESS PERIOD    2
                    SECONDS     MINUTES      HOURS       DAYS        YEARS
                    -----------------------------------------------------------
   TIME STEP LENGTH 1.72800E+05  2880.0      48.000      2.0000     5.47570E-03
 STRESS PERIOD TIME 3.33504E+07 5.55840E+05  9264.0      386.00      1.0568    
         TOTAL TIME 5.06304E+07 8.43840E+05  14064.      586.00      1.6044    


end timestep


start timestep kper="2" kstp="194" mode="normal"

 UBDSV1 SAVING           STO-SS ON UNIT   1027 AT TIME STEP    194, STRESS PERIOD      2
 UBDSV1 SAVING     FLOW-JA-FACE ON UNIT   1027 AT TIME STEP    194, STRESS PERIOD      2

 WEL PACKAGE (WEL1) FLOW RATES   PERIOD      2   STEP      194
 -----------------------------------------------
   NUMBER   CELLID                    RATE      
 -----------------------------------------------
     1      (1,17,17)            -5.00000000E-05
     2      (1,33,17)            -5.00000000E-05
     3      (1,9,26)             -5.00000000E-05
     4      (1,17,35)            -5.00000000E-05
     5      (1,33,35)            -5.00000000E-05
     6      (1,26,26)            -5.00000000E-05
     7      (1,41,26)            -5.00000000E-05
     8      (1,4,39)             -5.00000000E-05
     9      (1,27,3)             -5.00000000E-05
     10     (1,46,46)            -5.00000000E-05
 -----------------------------------------------




 WEL PACKAGE (WEL2) FLOW RATES   PERIOD      2   STEP      194
 -----------------------------------------------
   NUMBER   CELLID                    RATE      
 -----------------------------------------------
     1      (1,17,26)             2.50000000E-04
     2      (1,33,26)             2.50000000E-04
 -----------------------------------------------




 HEAD WILL BE SAVED ON UNIT 1028 AT END OF TIME STEP  194, STRESS PERIOD    2


  VOLUME BUDGET FOR ENTIRE MODEL AT END OF TIME STEP  194, STRESS PERIOD   2
  ---------------------------------------------------------------------------------------------------

     CUMULATIVE VOLUME      L**3       RATES FOR THIS TIME STEP      L**3/T          PACKAGE NAME    
     ------------------                 ------------------------                     ----------------

           IN:                                      IN:
           ---                                      ---
              STO-SS =           0.0000                STO-SS =           0.0000     STORAGE                          
                 WEL =           0.0000                   WEL =           0.0000     WEL1                             
                 WEL =           0.2940                   WEL =       5.0000E-04     WEL2                             

            TOTAL IN =           0.2940              TOTAL IN =       5.0000E-04

          OUT:                                     OUT:
          ----                                     ----
              STO-SS =           0.0000                STO-SS =           0.0000     STORAGE                          
                 WEL =           0.2940                   WEL =       5.0000E-04     WEL1                             
                 WEL =           0.0000                   WEL =           0.0000     WEL2                             

           TOTAL OUT =           0.2940             TOTAL OUT =       5.0000E-04

            IN - OUT =       4.0000E-11              IN - OUT =      -1.0842E-19

 PERCENT DISCREPANCY =           0.00     PERCENT DISCREPANCY =          -0.00




         TIME SUMMARY AT END OF TIME STEP  194 IN STRESS PERIOD    2
                    SECONDS     MINUTES      HOURS       DAYS        YEARS
                    -----------------------------------------------------------
   TIME STEP LENGTH 1.72800E+05  2880.0      48.000      2.0000     5.47570E-03
 STRESS PERIOD TIME 3.35232E+07 5.58720E+05  9312.0      388.00      1.0623    
         TOTAL TIME 5.08032E+07 8.46720E+05  14112.      588.00      1.6099    


end timestep


start timestep kper="2" kstp="195" mode="normal"

 UBDSV1 SAVING           STO-SS ON UNIT   1027 AT TIME STEP    195, STRESS PERIOD      2
 UBDSV1 SAVING     FLOW-JA-FACE ON UNIT   1027 AT TIME STEP    195, STRESS PERIOD      2

 WEL PACKAGE (WEL1) FLOW RATES   PERIOD      2   STEP      195
 -----------------------------------------------
   NUMBER   CELLID                    RATE      
 -----------------------------------------------
     1      (1,17,17)            -5.00000000E-05
     2      (1,33,17)            -5.00000000E-05
     3      (1,9,26)             -5.00000000E-05
     4      (1,17,35)            -5.00000000E-05
     5      (1,33,35)            -5.00000000E-05
     6      (1,26,26)            -5.00000000E-05
     7      (1,41,26)            -5.00000000E-05
     8      (1,4,39)             -5.00000000E-05
     9      (1,27,3)             -5.00000000E-05
     10     (1,46,46)            -5.00000000E-05
 -----------------------------------------------




 WEL PACKAGE (WEL2) FLOW RATES   PERIOD      2   STEP      195
 -----------------------------------------------
   NUMBER   CELLID                    RATE      
 -----------------------------------------------
     1      (1,17,26)             2.50000000E-04
     2      (1,33,26)             2.50000000E-04
 -----------------------------------------------




 HEAD WILL BE SAVED ON UNIT 1028 AT END OF TIME STEP  195, STRESS PERIOD    2


  VOLUME BUDGET FOR ENTIRE MODEL AT END OF TIME STEP  195, STRESS PERIOD   2
  ---------------------------------------------------------------------------------------------------

     CUMULATIVE VOLUME      L**3       RATES FOR THIS TIME STEP      L**3/T          PACKAGE NAME    
     ------------------                 ------------------------                     ----------------

           IN:                                      IN:
           ---                                      ---
              STO-SS =           0.0000                STO-SS =           0.0000     STORAGE                          
                 WEL =           0.0000                   WEL =           0.0000     WEL1                             
                 WEL =           0.2950                   WEL =       5.0000E-04     WEL2                             

            TOTAL IN =           0.2950              TOTAL IN =       5.0000E-04

          OUT:                                     OUT:
          ----                                     ----
              STO-SS =           0.0000                STO-SS =           0.0000     STORAGE                          
                 WEL =           0.2950                   WEL =       5.0000E-04     WEL1                             
                 WEL =           0.0000                   WEL =           0.0000     WEL2                             

           TOTAL OUT =           0.2950             TOTAL OUT =       5.0000E-04

            IN - OUT =       4.0000E-11              IN - OUT =      -1.0842E-19

 PERCENT DISCREPANCY =           0.00     PERCENT DISCREPANCY =          -0.00




         TIME SUMMARY AT END OF TIME STEP  195 IN STRESS PERIOD    2
                    SECONDS     MINUTES      HOURS       DAYS        YEARS
                    -----------------------------------------------------------
   TIME STEP LENGTH 1.72800E+05  2880.0      48.000      2.0000     5.47570E-03
 STRESS PERIOD TIME 3.36960E+07 5.61600E+05  9360.0      390.00      1.0678    
         TOTAL TIME 5.09760E+07 8.49600E+05  14160.      590.00      1.6153    


end timestep


start timestep kper="2" kstp="196" mode="normal"

 UBDSV1 SAVING           STO-SS ON UNIT   1027 AT TIME STEP    196, STRESS PERIOD      2
 UBDSV1 SAVING     FLOW-JA-FACE ON UNIT   1027 AT TIME STEP    196, STRESS PERIOD      2

 WEL PACKAGE (WEL1) FLOW RATES   PERIOD      2   STEP      196
 -----------------------------------------------
   NUMBER   CELLID                    RATE      
 -----------------------------------------------
     1      (1,17,17)            -5.00000000E-05
     2      (1,33,17)            -5.00000000E-05
     3      (1,9,26)             -5.00000000E-05
     4      (1,17,35)            -5.00000000E-05
     5      (1,33,35)            -5.00000000E-05
     6      (1,26,26)            -5.00000000E-05
     7      (1,41,26)            -5.00000000E-05
     8      (1,4,39)             -5.00000000E-05
     9      (1,27,3)             -5.00000000E-05
     10     (1,46,46)            -5.00000000E-05
 -----------------------------------------------




 WEL PACKAGE (WEL2) FLOW RATES   PERIOD      2   STEP      196
 -----------------------------------------------
   NUMBER   CELLID                    RATE      
 -----------------------------------------------
     1      (1,17,26)             2.50000000E-04
     2      (1,33,26)             2.50000000E-04
 -----------------------------------------------




 HEAD WILL BE SAVED ON UNIT 1028 AT END OF TIME STEP  196, STRESS PERIOD    2


  VOLUME BUDGET FOR ENTIRE MODEL AT END OF TIME STEP  196, STRESS PERIOD   2
  ---------------------------------------------------------------------------------------------------

     CUMULATIVE VOLUME      L**3       RATES FOR THIS TIME STEP      L**3/T          PACKAGE NAME    
     ------------------                 ------------------------                     ----------------

           IN:                                      IN:
           ---                                      ---
              STO-SS =           0.0000                STO-SS =           0.0000     STORAGE                          
                 WEL =           0.0000                   WEL =           0.0000     WEL1                             
                 WEL =           0.2960                   WEL =       5.0000E-04     WEL2                             

            TOTAL IN =           0.2960              TOTAL IN =       5.0000E-04

          OUT:                                     OUT:
          ----                                     ----
              STO-SS =           0.0000                STO-SS =           0.0000     STORAGE                          
                 WEL =           0.2960                   WEL =       5.0000E-04     WEL1                             
                 WEL =           0.0000                   WEL =           0.0000     WEL2                             

           TOTAL OUT =           0.2960             TOTAL OUT =       5.0000E-04

            IN - OUT =       4.0000E-11              IN - OUT =      -1.0842E-19

 PERCENT DISCREPANCY =           0.00     PERCENT DISCREPANCY =          -0.00




         TIME SUMMARY AT END OF TIME STEP  196 IN STRESS PERIOD    2
                    SECONDS     MINUTES      HOURS       DAYS        YEARS
                    -----------------------------------------------------------
   TIME STEP LENGTH 1.72800E+05  2880.0      48.000      2.0000     5.47570E-03
 STRESS PERIOD TIME 3.38688E+07 5.64480E+05  9408.0      392.00      1.0732    
         TOTAL TIME 5.11488E+07 8.52480E+05  14208.      592.00      1.6208    


end timestep


start timestep kper="2" kstp="197" mode="normal"

 UBDSV1 SAVING           STO-SS ON UNIT   1027 AT TIME STEP    197, STRESS PERIOD      2
 UBDSV1 SAVING     FLOW-JA-FACE ON UNIT   1027 AT TIME STEP    197, STRESS PERIOD      2

 WEL PACKAGE (WEL1) FLOW RATES   PERIOD      2   STEP      197
 -----------------------------------------------
   NUMBER   CELLID                    RATE      
 -----------------------------------------------
     1      (1,17,17)            -5.00000000E-05
     2      (1,33,17)            -5.00000000E-05
     3      (1,9,26)             -5.00000000E-05
     4      (1,17,35)            -5.00000000E-05
     5      (1,33,35)            -5.00000000E-05
     6      (1,26,26)            -5.00000000E-05
     7      (1,41,26)            -5.00000000E-05
     8      (1,4,39)             -5.00000000E-05
     9      (1,27,3)             -5.00000000E-05
     10     (1,46,46)            -5.00000000E-05
 -----------------------------------------------




 WEL PACKAGE (WEL2) FLOW RATES   PERIOD      2   STEP      197
 -----------------------------------------------
   NUMBER   CELLID                    RATE      
 -----------------------------------------------
     1      (1,17,26)             2.50000000E-04
     2      (1,33,26)             2.50000000E-04
 -----------------------------------------------




 HEAD WILL BE SAVED ON UNIT 1028 AT END OF TIME STEP  197, STRESS PERIOD    2


  VOLUME BUDGET FOR ENTIRE MODEL AT END OF TIME STEP  197, STRESS PERIOD   2
  ---------------------------------------------------------------------------------------------------

     CUMULATIVE VOLUME      L**3       RATES FOR THIS TIME STEP      L**3/T          PACKAGE NAME    
     ------------------                 ------------------------                     ----------------

           IN:                                      IN:
           ---                                      ---
              STO-SS =           0.0000                STO-SS =           0.0000     STORAGE                          
                 WEL =           0.0000                   WEL =           0.0000     WEL1                             
                 WEL =           0.2970                   WEL =       5.0000E-04     WEL2                             

            TOTAL IN =           0.2970              TOTAL IN =       5.0000E-04

          OUT:                                     OUT:
          ----                                     ----
              STO-SS =           0.0000                STO-SS =           0.0000     STORAGE                          
                 WEL =           0.2970                   WEL =       5.0000E-04     WEL1                             
                 WEL =           0.0000                   WEL =           0.0000     WEL2                             

           TOTAL OUT =           0.2970             TOTAL OUT =       5.0000E-04

            IN - OUT =       4.0000E-11              IN - OUT =      -1.0842E-19

 PERCENT DISCREPANCY =           0.00     PERCENT DISCREPANCY =          -0.00




         TIME SUMMARY AT END OF TIME STEP  197 IN STRESS PERIOD    2
                    SECONDS     MINUTES      HOURS       DAYS        YEARS
                    -----------------------------------------------------------
   TIME STEP LENGTH 1.72800E+05  2880.0      48.000      2.0000     5.47570E-03
 STRESS PERIOD TIME 3.40416E+07 5.67360E+05  9456.0      394.00      1.0787    
         TOTAL TIME 5.13216E+07 8.55360E+05  14256.      594.00      1.6263    


end timestep


start timestep kper="2" kstp="198" mode="normal"

 UBDSV1 SAVING           STO-SS ON UNIT   1027 AT TIME STEP    198, STRESS PERIOD      2
 UBDSV1 SAVING     FLOW-JA-FACE ON UNIT   1027 AT TIME STEP    198, STRESS PERIOD      2

 WEL PACKAGE (WEL1) FLOW RATES   PERIOD      2   STEP      198
 -----------------------------------------------
   NUMBER   CELLID                    RATE      
 -----------------------------------------------
     1      (1,17,17)            -5.00000000E-05
     2      (1,33,17)            -5.00000000E-05
     3      (1,9,26)             -5.00000000E-05
     4      (1,17,35)            -5.00000000E-05
     5      (1,33,35)            -5.00000000E-05
     6      (1,26,26)            -5.00000000E-05
     7      (1,41,26)            -5.00000000E-05
     8      (1,4,39)             -5.00000000E-05
     9      (1,27,3)             -5.00000000E-05
     10     (1,46,46)            -5.00000000E-05
 -----------------------------------------------




 WEL PACKAGE (WEL2) FLOW RATES   PERIOD      2   STEP      198
 -----------------------------------------------
   NUMBER   CELLID                    RATE      
 -----------------------------------------------
     1      (1,17,26)             2.50000000E-04
     2      (1,33,26)             2.50000000E-04
 -----------------------------------------------




 HEAD WILL BE SAVED ON UNIT 1028 AT END OF TIME STEP  198, STRESS PERIOD    2


  VOLUME BUDGET FOR ENTIRE MODEL AT END OF TIME STEP  198, STRESS PERIOD   2
  ---------------------------------------------------------------------------------------------------

     CUMULATIVE VOLUME      L**3       RATES FOR THIS TIME STEP      L**3/T          PACKAGE NAME    
     ------------------                 ------------------------                     ----------------

           IN:                                      IN:
           ---                                      ---
              STO-SS =           0.0000                STO-SS =           0.0000     STORAGE                          
                 WEL =           0.0000                   WEL =           0.0000     WEL1                             
                 WEL =           0.2980                   WEL =       5.0000E-04     WEL2                             

            TOTAL IN =           0.2980              TOTAL IN =       5.0000E-04

          OUT:                                     OUT:
          ----                                     ----
              STO-SS =           0.0000                STO-SS =           0.0000     STORAGE                          
                 WEL =           0.2980                   WEL =       5.0000E-04     WEL1                             
                 WEL =           0.0000                   WEL =           0.0000     WEL2                             

           TOTAL OUT =           0.2980             TOTAL OUT =       5.0000E-04

            IN - OUT =       4.0000E-11              IN - OUT =      -1.0842E-19

 PERCENT DISCREPANCY =           0.00     PERCENT DISCREPANCY =          -0.00




         TIME SUMMARY AT END OF TIME STEP  198 IN STRESS PERIOD    2
                    SECONDS     MINUTES      HOURS       DAYS        YEARS
                    -----------------------------------------------------------
   TIME STEP LENGTH 1.72800E+05  2880.0      48.000      2.0000     5.47570E-03
 STRESS PERIOD TIME 3.42144E+07 5.70240E+05  9504.0      396.00      1.0842    
         TOTAL TIME 5.14944E+07 8.58240E+05  14304.      596.00      1.6318    


end timestep


start timestep kper="2" kstp="199" mode="normal"

 UBDSV1 SAVING           STO-SS ON UNIT   1027 AT TIME STEP    199, STRESS PERIOD      2
 UBDSV1 SAVING     FLOW-JA-FACE ON UNIT   1027 AT TIME STEP    199, STRESS PERIOD      2

 WEL PACKAGE (WEL1) FLOW RATES   PERIOD      2   STEP      199
 -----------------------------------------------
   NUMBER   CELLID                    RATE      
 -----------------------------------------------
     1      (1,17,17)            -5.00000000E-05
     2      (1,33,17)            -5.00000000E-05
     3      (1,9,26)             -5.00000000E-05
     4      (1,17,35)            -5.00000000E-05
     5      (1,33,35)            -5.00000000E-05
     6      (1,26,26)            -5.00000000E-05
     7      (1,41,26)            -5.00000000E-05
     8      (1,4,39)             -5.00000000E-05
     9      (1,27,3)             -5.00000000E-05
     10     (1,46,46)            -5.00000000E-05
 -----------------------------------------------




 WEL PACKAGE (WEL2) FLOW RATES   PERIOD      2   STEP      199
 -----------------------------------------------
   NUMBER   CELLID                    RATE      
 -----------------------------------------------
     1      (1,17,26)             2.50000000E-04
     2      (1,33,26)             2.50000000E-04
 -----------------------------------------------




 HEAD WILL BE SAVED ON UNIT 1028 AT END OF TIME STEP  199, STRESS PERIOD    2


  VOLUME BUDGET FOR ENTIRE MODEL AT END OF TIME STEP  199, STRESS PERIOD   2
  ---------------------------------------------------------------------------------------------------

     CUMULATIVE VOLUME      L**3       RATES FOR THIS TIME STEP      L**3/T          PACKAGE NAME    
     ------------------                 ------------------------                     ----------------

           IN:                                      IN:
           ---                                      ---
              STO-SS =           0.0000                STO-SS =           0.0000     STORAGE                          
                 WEL =           0.0000                   WEL =           0.0000     WEL1                             
                 WEL =           0.2990                   WEL =       5.0000E-04     WEL2                             

            TOTAL IN =           0.2990              TOTAL IN =       5.0000E-04

          OUT:                                     OUT:
          ----                                     ----
              STO-SS =           0.0000                STO-SS =           0.0000     STORAGE                          
                 WEL =           0.2990                   WEL =       5.0000E-04     WEL1                             
                 WEL =           0.0000                   WEL =           0.0000     WEL2                             

           TOTAL OUT =           0.2990             TOTAL OUT =       5.0000E-04

            IN - OUT =       4.0000E-11              IN - OUT =      -1.0842E-19

 PERCENT DISCREPANCY =           0.00     PERCENT DISCREPANCY =          -0.00




         TIME SUMMARY AT END OF TIME STEP  199 IN STRESS PERIOD    2
                    SECONDS     MINUTES      HOURS       DAYS        YEARS
                    -----------------------------------------------------------
   TIME STEP LENGTH 1.72800E+05  2880.0      48.000      2.0000     5.47570E-03
 STRESS PERIOD TIME 3.43872E+07 5.73120E+05  9552.0      398.00      1.0897    
         TOTAL TIME 5.16672E+07 8.61120E+05  14352.      598.00      1.6372    


end timestep


start timestep kper="2" kstp="200" mode="normal"

 UBDSV1 SAVING           STO-SS ON UNIT   1027 AT TIME STEP    200, STRESS PERIOD      2
 UBDSV1 SAVING     FLOW-JA-FACE ON UNIT   1027 AT TIME STEP    200, STRESS PERIOD      2

 WEL PACKAGE (WEL1) FLOW RATES   PERIOD      2   STEP      200
 -----------------------------------------------
   NUMBER   CELLID                    RATE      
 -----------------------------------------------
     1      (1,17,17)            -5.00000000E-05
     2      (1,33,17)            -5.00000000E-05
     3      (1,9,26)             -5.00000000E-05
     4      (1,17,35)            -5.00000000E-05
     5      (1,33,35)            -5.00000000E-05
     6      (1,26,26)            -5.00000000E-05
     7      (1,41,26)            -5.00000000E-05
     8      (1,4,39)             -5.00000000E-05
     9      (1,27,3)             -5.00000000E-05
     10     (1,46,46)            -5.00000000E-05
 -----------------------------------------------




 WEL PACKAGE (WEL2) FLOW RATES   PERIOD      2   STEP      200
 -----------------------------------------------
   NUMBER   CELLID                    RATE      
 -----------------------------------------------
     1      (1,17,26)             2.50000000E-04
     2      (1,33,26)             2.50000000E-04
 -----------------------------------------------




 HEAD WILL BE SAVED ON UNIT 1028 AT END OF TIME STEP  200, STRESS PERIOD    2


  VOLUME BUDGET FOR ENTIRE MODEL AT END OF TIME STEP  200, STRESS PERIOD   2
  ---------------------------------------------------------------------------------------------------

     CUMULATIVE VOLUME      L**3       RATES FOR THIS TIME STEP      L**3/T          PACKAGE NAME    
     ------------------                 ------------------------                     ----------------

           IN:                                      IN:
           ---                                      ---
              STO-SS =           0.0000                STO-SS =           0.0000     STORAGE                          
                 WEL =           0.0000                   WEL =           0.0000     WEL1                             
                 WEL =           0.3000                   WEL =       5.0000E-04     WEL2                             

            TOTAL IN =           0.3000              TOTAL IN =       5.0000E-04

          OUT:                                     OUT:
          ----                                     ----
              STO-SS =           0.0000                STO-SS =           0.0000     STORAGE                          
                 WEL =           0.3000                   WEL =       5.0000E-04     WEL1                             
                 WEL =           0.0000                   WEL =           0.0000     WEL2                             

           TOTAL OUT =           0.3000             TOTAL OUT =       5.0000E-04

            IN - OUT =       4.0000E-11              IN - OUT =      -1.0842E-19

 PERCENT DISCREPANCY =           0.00     PERCENT DISCREPANCY =          -0.00




         TIME SUMMARY AT END OF TIME STEP  200 IN STRESS PERIOD    2
                    SECONDS     MINUTES      HOURS       DAYS        YEARS
                    -----------------------------------------------------------
   TIME STEP LENGTH 1.72800E+05  2880.0      48.000      2.0000     5.47570E-03
 STRESS PERIOD TIME 3.45600E+07 5.76000E+05  9600.0      400.00      1.0951    
         TOTAL TIME 5.18400E+07 8.64000E+05  14400.      600.00      1.6427    


end timestep

