                                   MODFLOW 6
                U.S. GEOLOGICAL SURVEY MODULAR HYDROLOGIC MODEL
                       GROUNDWATER TRANSPORT MODEL (GWT)
                        VERSION 6.4.1 Release 12/09/2022

   MODFLOW 6 compiled Dec 09 2022 18:18:37 with Intel(R) Fortran Intel(R) 64
   Compiler Classic for applications running on Intel(R) 64, Version 2021.7.0
                             Build 20220726_000000

This software has been approved for release by the U.S. Geological 
Survey (USGS). Although the software has been subjected to rigorous 
review, the USGS reserves the right to update the software as needed 
pursuant to further analysis and review. No warranty, expressed or 
implied, is made by the USGS or the U.S. Government as to the 
functionality of the software and related material nor shall the 
fact of release constitute any such warranty. Furthermore, the 
software is released on condition that neither the USGS nor the U.S. 
Government shall be held liable for any damages resulting from its 
authorized or unauthorized use. Also refer to the USGS Water 
Resources Software User Rights Notice for complete use, copyright, 
and distribution information.


As a work of the United States Government, this USGS product is 
in the public domain within the United States. You can copy, 
modify, distribute, and perform the work, even for commercial 
purposes, all without asking permission. Additionally, USGS 
waives copyright and related rights in the work worldwide 
through CC0 1.0 Universal Public Domain Dedication 
(https://creativecommons.org/publicdomain/zero/1.0/).

The following GNU Lesser General Public License (LGPL) libraries
are used in this USGS product:

    SPARSKIT version 2.0
      ilut, luson, and qsplit 
      (https://www-users.cse.umn.edu/~saad/software/SPARSKIT/)

    RCM - Reverse Cuthill McKee Ordering
      (https://people.math.sc.edu/Burkardt/f_src/rcm/rcm.html)

    BLAS - Basic Linear Algebra Subprograms Level 1
      (https://people.math.sc.edu/Burkardt/f_src/blas1_d/blas1_d.html)

    SPARSEKIT - Sparse Matrix Utility Package
      amux, dperm, dvperm, rperm, and cperm
      (https://people.sc.fsu.edu/~jburkardt/f77_src/sparsekit/sparsekit.html)

The following BSD-3 License libraries are used in this USGS product:

    Modern Fortran DAG Library
      Copyright (c) 2018, Jacob Williams
      All rights reserved.
      (https://github.com/jacobwilliams/daglib)

MODFLOW 6 compiler options: /Isrc\libmf6core.a.p /Isrc /I..\src
/Isrc\libmf6_external.a.p /MTd /nologo /warn:general /warn:truncated_source
/stand:f08 /Zi /traceback /O2 /fpe:0 /heap-arrays:0 /traceback /fpp
/Qdiag-disable:7416 /Qdiag-disable:7025 /Qdiag-disable:5268
/Fdsrc\libmf6core.a.p\Utilities_compilerversion.F90.pdb
/module:src\libmf6core.a.p
/Fosrc/libmf6core.a.p/Utilities_compilerversion.F90.obj /c

System command used to initiate simulation:
mf6  mfsim.nam

MODFLOW was compiled using uniform precision.

Real Variables
  KIND: 8
  TINY (smallest non-zero value):    2.225074-308
  HUGE (largest value):    1.797693+308
  PRECISION: 15
  SIZE IN BITS: 64

Integer Variables
  KIND: 4
  HUGE (largest value): 2147483647
  SIZE IN BITS: 32

Long Integer Variables
  KIND: 8
  HUGE (largest value): 9223372036854775807
  SIZE IN BITS: 64

Logical Variables
  KIND: 4
  SIZE IN BITS: 32
 

 OPENED sva_tm_t.dis
 FILE TYPE:DIS6                   UNIT 1016   STATUS:OLD                 
 FORMAT:FORMATTED              ACCESS:SEQUENTIAL          
 ACTION:READ                


 OPENED sva_tm_t.ic
 FILE TYPE:IC6                    UNIT 1017   STATUS:OLD                 
 FORMAT:FORMATTED              ACCESS:SEQUENTIAL          
 ACTION:READ                


 OPENED sva_tm_t.adv
 FILE TYPE:ADV6                   UNIT 1018   STATUS:OLD                 
 FORMAT:FORMATTED              ACCESS:SEQUENTIAL          
 ACTION:READ                


 OPENED sva_tm_t.dsp
 FILE TYPE:DSP6                   UNIT 1019   STATUS:OLD                 
 FORMAT:FORMATTED              ACCESS:SEQUENTIAL          
 ACTION:READ                


 OPENED sva_tm_t.mst
 FILE TYPE:MST6                   UNIT 1020   STATUS:OLD                 
 FORMAT:FORMATTED              ACCESS:SEQUENTIAL          
 ACTION:READ                


 OPENED sva_tm_t.ssm
 FILE TYPE:SSM6                   UNIT 1021   STATUS:OLD                 
 FORMAT:FORMATTED              ACCESS:SEQUENTIAL          
 ACTION:READ                


 OPENED sva_tm_t.oc
 FILE TYPE:OC6                    UNIT 1022   STATUS:OLD                 
 FORMAT:FORMATTED              ACCESS:SEQUENTIAL          
 ACTION:READ                


 OPENED sva_tm_t.obs
 FILE TYPE:OBS6                   UNIT 1023   STATUS:OLD                 
 FORMAT:FORMATTED              ACCESS:SEQUENTIAL          
 ACTION:READ                

 NAMEFILE OPTIONS:
    FLOWS WILL BE SAVED TO BUDGET FILE SPECIFIED IN OUTPUT CONTROL

 DIS -- STRUCTURED GRID DISCRETIZATION PACKAGE, VERSION 2 : 3/27/2014 - INPUT READ FROM UNIT 1016

 Loading input for SVA_TM_T/DIS
 # File generated by Flopy version 3.3.6 on 06/26/2023 at 16:14:30.
   NLAY = 1
   NROW = 50
   NCOL = 50
   DELR = .2000000000000000E-01
   DELC = .2000000000000000E-01
   TOP = .000000000000000
   BOTM = -1.000000000000000
   IDOMAIN = 1
 Loading input complete...


 DSP-- DISPERSION PACKAGE, VERSION 1, 1/24/2018 INPUT READ FROM UNIT 1019


 Loading input for SVA_TM_T/DSP
 # File generated by Flopy version 3.3.6 on 06/26/2023 at 16:14:30.
   XT3D_OFF = 1
   ALH = .5000000000000000E-02
   ATH1 = .5000000000000000E-03
 Loading input complete...

 Setting Discretization Options
 End Setting Discretization Options

 Setting Discretization Dimensions
    NLAY = 1
    NROW = 50
    NCOL = 50
 End Setting Discretization Dimensions

 Setting Discretization Griddata
    DELR set from input file
    DELC set from input file
    TOP set from input file
    BOTM set from input file
    IDOMAIN set from input file
 End Setting Discretization Griddata


 FMI -- FLOW MODEL INTERFACE, VERSION 1, 8/29/2017
  FLOWS PROVIDED BY A GWF MODEL IN THIS SIMULATION

 ADV-- ADVECTION PACKAGE, VERSION 1, 8/25/2017 INPUT READ FROM UNIT 1018


 # File generated by Flopy version 3.3.6 on 06/26/2023 at 16:14:30.
 PROCESSING ADVECTION OPTIONS
    ADVECTION WEIGHTING SCHEME HAS BEEN SET TO: TVD
 END OF ADVECTION OPTIONS
 Setting DSP Options
    XT3D formulation [0=INACTIVE, 1=ACTIVE, 3=ACTIVE RHS] set to: 0
 End Setting DSP Options

 Setting DSP Griddata
    ALH set from input file
    ATH1 set from input file
 End Setting DSP Griddata


 IC -- INITIAL CONDITIONS PACKAGE, VERSION 8, 3/28/2015 INPUT READ FROM UNIT 1017
 # File generated by Flopy version 3.3.6 on 06/26/2023 at 16:14:30.
 PROCESSING GRIDDATA

 INITIAL CONCENTRATION =   0.000000    
 END PROCESSING GRIDDATA

 MST -- MOBILE STORAGE AND TRANSFER PACKAGE, VERSION 1, 7/29/2020 INPUT READ FROM UNIT 1020


 # File generated by Flopy version 3.3.6 on 06/26/2023 at 16:14:30.
 PROCESSING MOBILE STORAGE AND TRANSFER OPTIONS
 END OF MOBILE STORAGE AND TRANSFER OPTIONS
 PROCESSING GRIDDATA

   MOBILE DOMAIN POROSITY =  0.2500000    
 END PROCESSING GRIDDATA

 SSM -- SOURCE-SINK MIXING PACKAGE, VERSION 1, 8/25/2017 INPUT READ FROM UNIT 1021


 # File generated by Flopy version 3.3.6 on 06/26/2023 at 16:14:30.
 PROCESSING SSM OPTIONS
 END OF SSM OPTIONS
 PROCESSING SOURCES
 AUX SOURCE DETECTED.
    USING AUX COLUMN 1 IN PACKAGE WEL2
 END PROCESSING SOURCES
 OPTIONAL FILEINPUT BLOCK NOT FOUND.  CONTINUING.

The observation utility is active for "SVA_TM_T"
 # File generated by Flopy version 3.3.6 on 06/26/2023 at 16:14:30.

Processing observation options:

Text output number of digits of precision set to:  4

      THE LAST TIME STEP WILL BE PRINTED
      THE LAST TIME STEP WILL BE PRINTED
 # File generated by Flopy version 3.3.6 on 06/26/2023 at 16:14:30.

 PROCESSING OC OPTIONS

    BUDGET INFORMATION WILL BE WRITTEN TO:
      UNIT NUMBER: 1030
      FILE NAME: sva_tm_t.cbc

 OPENED sva_tm_t.cbc
 FILE TYPE:DATA(BINARY)   UNIT 1030   STATUS:REPLACE             
 FORMAT:UNFORMATTED            ACCESS:STREAM              
 ACTION:READWRITE           

    CONCENTRATION INFORMATION WILL BE WRITTEN TO:
      UNIT NUMBER: 1031
      FILE NAME: sva_tm_t.ucn

 OPENED sva_tm_t.ucn
 FILE TYPE:DATA(BINARY)   UNIT 1031   STATUS:REPLACE             
 FORMAT:UNFORMATTED            ACCESS:STREAM              
 ACTION:READWRITE           

 END OF OC OPTIONS

start timestep kper="1" kstp="1" mode="normal"


 BEGIN READING OUTPUT CONTROL FOR STRESS PERIOD 1
      ALL TIME STEPS WILL BE SAVED
      ALL TIME STEPS WILL BE SAVED
      THE LAST TIME STEP WILL BE PRINTED
      ALL TIME STEPS WILL BE PRINTED

 END READING OUTPUT CONTROL FOR STRESS PERIOD 1
 UBDSV1 SAVING     FLOW-JA-FACE ON UNIT   1030 AT TIME STEP      1, STRESS PERIOD      1
 UBDSV1 SAVING  STORAGE-AQUEOUS ON UNIT   1030 AT TIME STEP      1, STRESS PERIOD      1
 UBDSV06 SAVING  SOURCE-SINK MIX IN MODEL SVA_TM_T         PACKAGE SVA_TM_T        CONNECTED TO MODEL SVA_TM_T         PACKAGE SSM              ON UNIT   1030 AT TIME STEP      1, STRESS PERIOD      1

 CONCENTRATION WILL BE SAVED ON UNIT 1031 AT END OF TIME STEP    1, STRESS PERIOD    1


  MASS BUDGET FOR ENTIRE MODEL AT END OF TIME STEP    1, STRESS PERIOD   1
  ---------------------------------------------------------------------------------------------------

     CUMULATIVE MASS      M       RATES FOR THIS TIME STEP      M/T          PACKAGE NAME    
     ------------------                 ------------------------                     ----------------

           IN:                                      IN:
           ---                                      ---
     STORAGE-AQUEOUS =       7.7975E-12       STORAGE-AQUEOUS =       3.8987E-12     MST                              
                 WEL =           0.0000                   WEL =           0.0000     SSM_WEL1                         
                 WEL =       1.0000E-03                   WEL =       5.0000E-04     SSM_WEL2                         

            TOTAL IN =       1.0000E-03              TOTAL IN =       5.0000E-04

          OUT:                                     OUT:
          ----                                     ----
     STORAGE-AQUEOUS =       1.0000E-03       STORAGE-AQUEOUS =       5.0000E-04     MST                              
                 WEL =       1.3248E-09                   WEL =       6.6242E-10     SSM_WEL1                         
                 WEL =           0.0000                   WEL =           0.0000     SSM_WEL2                         

           TOTAL OUT =       1.0000E-03             TOTAL OUT =       5.0000E-04

            IN - OUT =      -4.9531E-10              IN - OUT =      -2.4765E-10

 PERCENT DISCREPANCY =          -0.00     PERCENT DISCREPANCY =          -0.00




         TIME SUMMARY AT END OF TIME STEP    1 IN STRESS PERIOD    1
                    SECONDS     MINUTES      HOURS       DAYS        YEARS
                    -----------------------------------------------------------
   TIME STEP LENGTH 1.72800E+05  2880.0      48.000      2.0000     5.47570E-03
 STRESS PERIOD TIME 1.72800E+05  2880.0      48.000      2.0000     5.47570E-03
         TOTAL TIME 1.72800E+05  2880.0      48.000      2.0000     5.47570E-03


end timestep


start timestep kper="1" kstp="2" mode="normal"

 UBDSV1 SAVING     FLOW-JA-FACE ON UNIT   1030 AT TIME STEP      2, STRESS PERIOD      1
 UBDSV1 SAVING  STORAGE-AQUEOUS ON UNIT   1030 AT TIME STEP      2, STRESS PERIOD      1
 UBDSV06 SAVING  SOURCE-SINK MIX IN MODEL SVA_TM_T         PACKAGE SVA_TM_T        CONNECTED TO MODEL SVA_TM_T         PACKAGE SSM              ON UNIT   1030 AT TIME STEP      2, STRESS PERIOD      1

 CONCENTRATION WILL BE SAVED ON UNIT 1031 AT END OF TIME STEP    2, STRESS PERIOD    1


  MASS BUDGET FOR ENTIRE MODEL AT END OF TIME STEP    2, STRESS PERIOD   1
  ---------------------------------------------------------------------------------------------------

     CUMULATIVE MASS      M       RATES FOR THIS TIME STEP      M/T          PACKAGE NAME    
     ------------------                 ------------------------                     ----------------

           IN:                                      IN:
           ---                                      ---
     STORAGE-AQUEOUS =       9.7350E-12       STORAGE-AQUEOUS =       9.6876E-13     MST                              
                 WEL =           0.0000                   WEL =           0.0000     SSM_WEL1                         
                 WEL =       2.0000E-03                   WEL =       5.0000E-04     SSM_WEL2                         

            TOTAL IN =       2.0000E-03              TOTAL IN =       5.0000E-04

          OUT:                                     OUT:
          ----                                     ----
     STORAGE-AQUEOUS =       2.0000E-03       STORAGE-AQUEOUS =       4.9999E-04     MST                              
                 WEL =       1.4274E-08                   WEL =       6.4745E-09     SSM_WEL1                         
                 WEL =           0.0000                   WEL =           0.0000     SSM_WEL2                         

           TOTAL OUT =       2.0000E-03             TOTAL OUT =       5.0000E-04

            IN - OUT =      -1.7095E-10              IN - OUT =       1.6218E-10

 PERCENT DISCREPANCY =          -0.00     PERCENT DISCREPANCY =           0.00




         TIME SUMMARY AT END OF TIME STEP    2 IN STRESS PERIOD    1
                    SECONDS     MINUTES      HOURS       DAYS        YEARS
                    -----------------------------------------------------------
   TIME STEP LENGTH 1.72800E+05  2880.0      48.000      2.0000     5.47570E-03
 STRESS PERIOD TIME 3.45600E+05  5760.0      96.000      4.0000     1.09514E-02
         TOTAL TIME 3.45600E+05  5760.0      96.000      4.0000     1.09514E-02


end timestep


start timestep kper="1" kstp="3" mode="normal"

 UBDSV1 SAVING     FLOW-JA-FACE ON UNIT   1030 AT TIME STEP      3, STRESS PERIOD      1
 UBDSV1 SAVING  STORAGE-AQUEOUS ON UNIT   1030 AT TIME STEP      3, STRESS PERIOD      1
 UBDSV06 SAVING  SOURCE-SINK MIX IN MODEL SVA_TM_T         PACKAGE SVA_TM_T        CONNECTED TO MODEL SVA_TM_T         PACKAGE SSM              ON UNIT   1030 AT TIME STEP      3, STRESS PERIOD      1

 CONCENTRATION WILL BE SAVED ON UNIT 1031 AT END OF TIME STEP    3, STRESS PERIOD    1


  MASS BUDGET FOR ENTIRE MODEL AT END OF TIME STEP    3, STRESS PERIOD   1
  ---------------------------------------------------------------------------------------------------

     CUMULATIVE MASS      M       RATES FOR THIS TIME STEP      M/T          PACKAGE NAME    
     ------------------                 ------------------------                     ----------------

           IN:                                      IN:
           ---                                      ---
     STORAGE-AQUEOUS =       1.0558E-11       STORAGE-AQUEOUS =       4.1171E-13     MST                              
                 WEL =           0.0000                   WEL =           0.0000     SSM_WEL1                         
                 WEL =       3.0000E-03                   WEL =       5.0000E-04     SSM_WEL2                         

            TOTAL IN =       3.0000E-03              TOTAL IN =       5.0000E-04

          OUT:                                     OUT:
          ----                                     ----
     STORAGE-AQUEOUS =       2.9999E-03       STORAGE-AQUEOUS =       4.9996E-04     MST                              
                 WEL =       8.4935E-08                   WEL =       3.5331E-08     SSM_WEL1                         
                 WEL =           0.0000                   WEL =           0.0000     SSM_WEL2                         

           TOTAL OUT =       3.0000E-03             TOTAL OUT =       5.0000E-04

            IN - OUT =       1.0638E-09              IN - OUT =       6.1739E-10

 PERCENT DISCREPANCY =           0.00     PERCENT DISCREPANCY =           0.00




         TIME SUMMARY AT END OF TIME STEP    3 IN STRESS PERIOD    1
                    SECONDS     MINUTES      HOURS       DAYS        YEARS
                    -----------------------------------------------------------
   TIME STEP LENGTH 1.72800E+05  2880.0      48.000      2.0000     5.47570E-03
 STRESS PERIOD TIME 5.18400E+05  8640.0      144.00      6.0000     1.64271E-02
         TOTAL TIME 5.18400E+05  8640.0      144.00      6.0000     1.64271E-02


end timestep


start timestep kper="1" kstp="4" mode="normal"

 UBDSV1 SAVING     FLOW-JA-FACE ON UNIT   1030 AT TIME STEP      4, STRESS PERIOD      1
 UBDSV1 SAVING  STORAGE-AQUEOUS ON UNIT   1030 AT TIME STEP      4, STRESS PERIOD      1
 UBDSV06 SAVING  SOURCE-SINK MIX IN MODEL SVA_TM_T         PACKAGE SVA_TM_T        CONNECTED TO MODEL SVA_TM_T         PACKAGE SSM              ON UNIT   1030 AT TIME STEP      4, STRESS PERIOD      1

 CONCENTRATION WILL BE SAVED ON UNIT 1031 AT END OF TIME STEP    4, STRESS PERIOD    1


  MASS BUDGET FOR ENTIRE MODEL AT END OF TIME STEP    4, STRESS PERIOD   1
  ---------------------------------------------------------------------------------------------------

     CUMULATIVE MASS      M       RATES FOR THIS TIME STEP      M/T          PACKAGE NAME    
     ------------------                 ------------------------                     ----------------

           IN:                                      IN:
           ---                                      ---
     STORAGE-AQUEOUS =       1.0761E-11       STORAGE-AQUEOUS =       1.0130E-13     MST                              
                 WEL =           0.0000                   WEL =           0.0000     SSM_WEL1                         
                 WEL =       4.0000E-03                   WEL =       5.0000E-04     SSM_WEL2                         

            TOTAL IN =       4.0000E-03              TOTAL IN =       5.0000E-04

          OUT:                                     OUT:
          ----                                     ----
     STORAGE-AQUEOUS =       3.9996E-03       STORAGE-AQUEOUS =       4.9986E-04     MST                              
                 WEL =       3.5545E-07                   WEL =       1.3526E-07     SSM_WEL1                         
                 WEL =           0.0000                   WEL =           0.0000     SSM_WEL2                         

           TOTAL OUT =       4.0000E-03             TOTAL OUT =       5.0000E-04

            IN - OUT =       3.7009E-09              IN - OUT =       1.3185E-09

 PERCENT DISCREPANCY =           0.00     PERCENT DISCREPANCY =           0.00




         TIME SUMMARY AT END OF TIME STEP    4 IN STRESS PERIOD    1
                    SECONDS     MINUTES      HOURS       DAYS        YEARS
                    -----------------------------------------------------------
   TIME STEP LENGTH 1.72800E+05  2880.0      48.000      2.0000     5.47570E-03
 STRESS PERIOD TIME 6.91200E+05  11520.      192.00      8.0000     2.19028E-02
         TOTAL TIME 6.91200E+05  11520.      192.00      8.0000     2.19028E-02


end timestep


start timestep kper="1" kstp="5" mode="normal"

 UBDSV1 SAVING     FLOW-JA-FACE ON UNIT   1030 AT TIME STEP      5, STRESS PERIOD      1
 UBDSV1 SAVING  STORAGE-AQUEOUS ON UNIT   1030 AT TIME STEP      5, STRESS PERIOD      1
 UBDSV06 SAVING  SOURCE-SINK MIX IN MODEL SVA_TM_T         PACKAGE SVA_TM_T        CONNECTED TO MODEL SVA_TM_T         PACKAGE SSM              ON UNIT   1030 AT TIME STEP      5, STRESS PERIOD      1

 CONCENTRATION WILL BE SAVED ON UNIT 1031 AT END OF TIME STEP    5, STRESS PERIOD    1


  MASS BUDGET FOR ENTIRE MODEL AT END OF TIME STEP    5, STRESS PERIOD   1
  ---------------------------------------------------------------------------------------------------

     CUMULATIVE MASS      M       RATES FOR THIS TIME STEP      M/T          PACKAGE NAME    
     ------------------                 ------------------------                     ----------------

           IN:                                      IN:
           ---                                      ---
     STORAGE-AQUEOUS =       1.0854E-11       STORAGE-AQUEOUS =       4.6598E-14     MST                              
                 WEL =           0.0000                   WEL =           0.0000     SSM_WEL1                         
                 WEL =       5.0000E-03                   WEL =       5.0000E-04     SSM_WEL2                         

            TOTAL IN =       5.0000E-03              TOTAL IN =       5.0000E-04

          OUT:                                     OUT:
          ----                                     ----
     STORAGE-AQUEOUS =       4.9988E-03       STORAGE-AQUEOUS =       4.9959E-04     MST                              
                 WEL =       1.1630E-06                   WEL =       4.0376E-07     SSM_WEL1                         
                 WEL =           0.0000                   WEL =           0.0000     SSM_WEL2                         

           TOTAL OUT =       5.0000E-03             TOTAL OUT =       5.0000E-04

            IN - OUT =       6.8782E-09              IN - OUT =       1.5886E-09

 PERCENT DISCREPANCY =           0.00     PERCENT DISCREPANCY =           0.00




         TIME SUMMARY AT END OF TIME STEP    5 IN STRESS PERIOD    1
                    SECONDS     MINUTES      HOURS       DAYS        YEARS
                    -----------------------------------------------------------
   TIME STEP LENGTH 1.72800E+05  2880.0      48.000      2.0000     5.47570E-03
 STRESS PERIOD TIME 8.64000E+05  14400.      240.00      10.000     2.73785E-02
         TOTAL TIME 8.64000E+05  14400.      240.00      10.000     2.73785E-02


end timestep


start timestep kper="1" kstp="6" mode="normal"

 UBDSV1 SAVING     FLOW-JA-FACE ON UNIT   1030 AT TIME STEP      6, STRESS PERIOD      1
 UBDSV1 SAVING  STORAGE-AQUEOUS ON UNIT   1030 AT TIME STEP      6, STRESS PERIOD      1
 UBDSV06 SAVING  SOURCE-SINK MIX IN MODEL SVA_TM_T         PACKAGE SVA_TM_T        CONNECTED TO MODEL SVA_TM_T         PACKAGE SSM              ON UNIT   1030 AT TIME STEP      6, STRESS PERIOD      1

 CONCENTRATION WILL BE SAVED ON UNIT 1031 AT END OF TIME STEP    6, STRESS PERIOD    1


  MASS BUDGET FOR ENTIRE MODEL AT END OF TIME STEP    6, STRESS PERIOD   1
  ---------------------------------------------------------------------------------------------------

     CUMULATIVE MASS      M       RATES FOR THIS TIME STEP      M/T          PACKAGE NAME    
     ------------------                 ------------------------                     ----------------

           IN:                                      IN:
           ---                                      ---
     STORAGE-AQUEOUS =       1.0875E-11       STORAGE-AQUEOUS =       1.0405E-14     MST                              
                 WEL =           0.0000                   WEL =           0.0000     SSM_WEL1                         
                 WEL =       6.0000E-03                   WEL =       5.0000E-04     SSM_WEL2                         

            TOTAL IN =       6.0000E-03              TOTAL IN =       5.0000E-04

          OUT:                                     OUT:
          ----                                     ----
     STORAGE-AQUEOUS =       5.9968E-03       STORAGE-AQUEOUS =       4.9900E-04     MST                              
                 WEL =       3.1593E-06                   WEL =       9.9815E-07     SSM_WEL1                         
                 WEL =           0.0000                   WEL =           0.0000     SSM_WEL2                         

           TOTAL OUT =       6.0000E-03             TOTAL OUT =       5.0000E-04

            IN - OUT =       1.1260E-08              IN - OUT =       2.1910E-09

 PERCENT DISCREPANCY =           0.00     PERCENT DISCREPANCY =           0.00




         TIME SUMMARY AT END OF TIME STEP    6 IN STRESS PERIOD    1
                    SECONDS     MINUTES      HOURS       DAYS        YEARS
                    -----------------------------------------------------------
   TIME STEP LENGTH 1.72800E+05  2880.0      48.000      2.0000     5.47570E-03
 STRESS PERIOD TIME 1.03680E+06  17280.      288.00      12.000     3.28542E-02
         TOTAL TIME 1.03680E+06  17280.      288.00      12.000     3.28542E-02


end timestep


start timestep kper="1" kstp="7" mode="normal"

 UBDSV1 SAVING     FLOW-JA-FACE ON UNIT   1030 AT TIME STEP      7, STRESS PERIOD      1
 UBDSV1 SAVING  STORAGE-AQUEOUS ON UNIT   1030 AT TIME STEP      7, STRESS PERIOD      1
 UBDSV06 SAVING  SOURCE-SINK MIX IN MODEL SVA_TM_T         PACKAGE SVA_TM_T        CONNECTED TO MODEL SVA_TM_T         PACKAGE SSM              ON UNIT   1030 AT TIME STEP      7, STRESS PERIOD      1

 CONCENTRATION WILL BE SAVED ON UNIT 1031 AT END OF TIME STEP    7, STRESS PERIOD    1


  MASS BUDGET FOR ENTIRE MODEL AT END OF TIME STEP    7, STRESS PERIOD   1
  ---------------------------------------------------------------------------------------------------

     CUMULATIVE MASS      M       RATES FOR THIS TIME STEP      M/T          PACKAGE NAME    
     ------------------                 ------------------------                     ----------------

           IN:                                      IN:
           ---                                      ---
     STORAGE-AQUEOUS =       1.0894E-11       STORAGE-AQUEOUS =       9.7079E-15     MST                              
                 WEL =           0.0000                   WEL =           0.0000     SSM_WEL1                         
                 WEL =       7.0000E-03                   WEL =       5.0000E-04     SSM_WEL2                         

            TOTAL IN =       7.0000E-03              TOTAL IN =       5.0000E-04

          OUT:                                     OUT:
          ----                                     ----
     STORAGE-AQUEOUS =       6.9926E-03       STORAGE-AQUEOUS =       4.9787E-04     MST                              
                 WEL =       7.4102E-06                   WEL =       2.1254E-06     SSM_WEL1                         
                 WEL =           0.0000                   WEL =           0.0000     SSM_WEL2                         

           TOTAL OUT =       7.0000E-03             TOTAL OUT =       5.0000E-04

            IN - OUT =       1.3903E-08              IN - OUT =       1.3212E-09

 PERCENT DISCREPANCY =           0.00     PERCENT DISCREPANCY =           0.00




         TIME SUMMARY AT END OF TIME STEP    7 IN STRESS PERIOD    1
                    SECONDS     MINUTES      HOURS       DAYS        YEARS
                    -----------------------------------------------------------
   TIME STEP LENGTH 1.72800E+05  2880.0      48.000      2.0000     5.47570E-03
 STRESS PERIOD TIME 1.20960E+06  20160.      336.00      14.000     3.83299E-02
         TOTAL TIME 1.20960E+06  20160.      336.00      14.000     3.83299E-02


end timestep


start timestep kper="1" kstp="8" mode="normal"

 UBDSV1 SAVING     FLOW-JA-FACE ON UNIT   1030 AT TIME STEP      8, STRESS PERIOD      1
 UBDSV1 SAVING  STORAGE-AQUEOUS ON UNIT   1030 AT TIME STEP      8, STRESS PERIOD      1
 UBDSV06 SAVING  SOURCE-SINK MIX IN MODEL SVA_TM_T         PACKAGE SVA_TM_T        CONNECTED TO MODEL SVA_TM_T         PACKAGE SSM              ON UNIT   1030 AT TIME STEP      8, STRESS PERIOD      1

 CONCENTRATION WILL BE SAVED ON UNIT 1031 AT END OF TIME STEP    8, STRESS PERIOD    1


  MASS BUDGET FOR ENTIRE MODEL AT END OF TIME STEP    8, STRESS PERIOD   1
  ---------------------------------------------------------------------------------------------------

     CUMULATIVE MASS      M       RATES FOR THIS TIME STEP      M/T          PACKAGE NAME    
     ------------------                 ------------------------                     ----------------

           IN:                                      IN:
           ---                                      ---
     STORAGE-AQUEOUS =       1.0897E-11       STORAGE-AQUEOUS =       1.1900E-15     MST                              
                 WEL =           0.0000                   WEL =           0.0000     SSM_WEL1                         
                 WEL =       8.0000E-03                   WEL =       5.0000E-04     SSM_WEL2                         

            TOTAL IN =       8.0000E-03              TOTAL IN =       5.0000E-04

          OUT:                                     OUT:
          ----                                     ----
     STORAGE-AQUEOUS =       7.9846E-03       STORAGE-AQUEOUS =       4.9599E-04     MST                              
                 WEL =       1.5429E-05                   WEL =       4.0092E-06     SSM_WEL1                         
                 WEL =           0.0000                   WEL =           0.0000     SSM_WEL2                         

           TOTAL OUT =       8.0000E-03             TOTAL OUT =       5.0000E-04

            IN - OUT =       1.8390E-08              IN - OUT =       2.2437E-09

 PERCENT DISCREPANCY =           0.00     PERCENT DISCREPANCY =           0.00




         TIME SUMMARY AT END OF TIME STEP    8 IN STRESS PERIOD    1
                    SECONDS     MINUTES      HOURS       DAYS        YEARS
                    -----------------------------------------------------------
   TIME STEP LENGTH 1.72800E+05  2880.0      48.000      2.0000     5.47570E-03
 STRESS PERIOD TIME 1.38240E+06  23040.      384.00      16.000     4.38056E-02
         TOTAL TIME 1.38240E+06  23040.      384.00      16.000     4.38056E-02


end timestep


start timestep kper="1" kstp="9" mode="normal"

 UBDSV1 SAVING     FLOW-JA-FACE ON UNIT   1030 AT TIME STEP      9, STRESS PERIOD      1
 UBDSV1 SAVING  STORAGE-AQUEOUS ON UNIT   1030 AT TIME STEP      9, STRESS PERIOD      1
 UBDSV06 SAVING  SOURCE-SINK MIX IN MODEL SVA_TM_T         PACKAGE SVA_TM_T        CONNECTED TO MODEL SVA_TM_T         PACKAGE SSM              ON UNIT   1030 AT TIME STEP      9, STRESS PERIOD      1

 CONCENTRATION WILL BE SAVED ON UNIT 1031 AT END OF TIME STEP    9, STRESS PERIOD    1


  MASS BUDGET FOR ENTIRE MODEL AT END OF TIME STEP    9, STRESS PERIOD   1
  ---------------------------------------------------------------------------------------------------

     CUMULATIVE MASS      M       RATES FOR THIS TIME STEP      M/T          PACKAGE NAME    
     ------------------                 ------------------------                     ----------------

           IN:                                      IN:
           ---                                      ---
     STORAGE-AQUEOUS =       1.0899E-11       STORAGE-AQUEOUS =       9.8021E-16     MST                              
                 WEL =           0.0000                   WEL =           0.0000     SSM_WEL1                         
                 WEL =       9.0000E-03                   WEL =       5.0000E-04     SSM_WEL2                         

            TOTAL IN =       9.0000E-03              TOTAL IN =       5.0000E-04

          OUT:                                     OUT:
          ----                                     ----
     STORAGE-AQUEOUS =       8.9709E-03       STORAGE-AQUEOUS =       4.9315E-04     MST                              
                 WEL =       2.9117E-05                   WEL =       6.8440E-06     SSM_WEL1                         
                 WEL =           0.0000                   WEL =           0.0000     SSM_WEL2                         

           TOTAL OUT =       9.0000E-03             TOTAL OUT =       5.0000E-04

            IN - OUT =       2.3050E-08              IN - OUT =       2.3301E-09

 PERCENT DISCREPANCY =           0.00     PERCENT DISCREPANCY =           0.00




         TIME SUMMARY AT END OF TIME STEP    9 IN STRESS PERIOD    1
                    SECONDS     MINUTES      HOURS       DAYS        YEARS
                    -----------------------------------------------------------
   TIME STEP LENGTH 1.72800E+05  2880.0      48.000      2.0000     5.47570E-03
 STRESS PERIOD TIME 1.55520E+06  25920.      432.00      18.000     4.92813E-02
         TOTAL TIME 1.55520E+06  25920.      432.00      18.000     4.92813E-02


end timestep


start timestep kper="1" kstp="10" mode="normal"

 UBDSV1 SAVING     FLOW-JA-FACE ON UNIT   1030 AT TIME STEP     10, STRESS PERIOD      1
 UBDSV1 SAVING  STORAGE-AQUEOUS ON UNIT   1030 AT TIME STEP     10, STRESS PERIOD      1
 UBDSV06 SAVING  SOURCE-SINK MIX IN MODEL SVA_TM_T         PACKAGE SVA_TM_T        CONNECTED TO MODEL SVA_TM_T         PACKAGE SSM              ON UNIT   1030 AT TIME STEP     10, STRESS PERIOD      1

 CONCENTRATION WILL BE SAVED ON UNIT 1031 AT END OF TIME STEP   10, STRESS PERIOD    1


  MASS BUDGET FOR ENTIRE MODEL AT END OF TIME STEP   10, STRESS PERIOD   1
  ---------------------------------------------------------------------------------------------------

     CUMULATIVE MASS      M       RATES FOR THIS TIME STEP      M/T          PACKAGE NAME    
     ------------------                 ------------------------                     ----------------

           IN:                                      IN:
           ---                                      ---
     STORAGE-AQUEOUS =       1.0899E-11       STORAGE-AQUEOUS =       4.6627E-17     MST                              
                 WEL =           0.0000                   WEL =           0.0000     SSM_WEL1                         
                 WEL =       1.0000E-02                   WEL =       5.0000E-04     SSM_WEL2                         

            TOTAL IN =       1.0000E-02              TOTAL IN =       5.0000E-04

          OUT:                                     OUT:
          ----                                     ----
     STORAGE-AQUEOUS =       9.9493E-03       STORAGE-AQUEOUS =       4.8924E-04     MST                              
                 WEL =       5.0624E-05                   WEL =       1.0754E-05     SSM_WEL1                         
                 WEL =           0.0000                   WEL =           0.0000     SSM_WEL2                         

           TOTAL OUT =       1.0000E-02             TOTAL OUT =       5.0000E-04

            IN - OUT =       2.7212E-08              IN - OUT =       2.0808E-09

 PERCENT DISCREPANCY =           0.00     PERCENT DISCREPANCY =           0.00




         TIME SUMMARY AT END OF TIME STEP   10 IN STRESS PERIOD    1
                    SECONDS     MINUTES      HOURS       DAYS        YEARS
                    -----------------------------------------------------------
   TIME STEP LENGTH 1.72800E+05  2880.0      48.000      2.0000     5.47570E-03
 STRESS PERIOD TIME 1.72800E+06  28800.      480.00      20.000     5.47570E-02
         TOTAL TIME 1.72800E+06  28800.      480.00      20.000     5.47570E-02


end timestep


start timestep kper="1" kstp="11" mode="normal"

 UBDSV1 SAVING     FLOW-JA-FACE ON UNIT   1030 AT TIME STEP     11, STRESS PERIOD      1
 UBDSV1 SAVING  STORAGE-AQUEOUS ON UNIT   1030 AT TIME STEP     11, STRESS PERIOD      1
 UBDSV06 SAVING  SOURCE-SINK MIX IN MODEL SVA_TM_T         PACKAGE SVA_TM_T        CONNECTED TO MODEL SVA_TM_T         PACKAGE SSM              ON UNIT   1030 AT TIME STEP     11, STRESS PERIOD      1

 CONCENTRATION WILL BE SAVED ON UNIT 1031 AT END OF TIME STEP   11, STRESS PERIOD    1


  MASS BUDGET FOR ENTIRE MODEL AT END OF TIME STEP   11, STRESS PERIOD   1
  ---------------------------------------------------------------------------------------------------

     CUMULATIVE MASS      M       RATES FOR THIS TIME STEP      M/T          PACKAGE NAME    
     ------------------                 ------------------------                     ----------------

           IN:                                      IN:
           ---                                      ---
     STORAGE-AQUEOUS =       1.0899E-11       STORAGE-AQUEOUS =       7.0310E-17     MST                              
                 WEL =           0.0000                   WEL =           0.0000     SSM_WEL1                         
                 WEL =       1.1000E-02                   WEL =       5.0000E-04     SSM_WEL2                         

            TOTAL IN =       1.1000E-02              TOTAL IN =       5.0000E-04

          OUT:                                     OUT:
          ----                                     ----
     STORAGE-AQUEOUS =       1.0918E-02       STORAGE-AQUEOUS =       4.8423E-04     MST                              
                 WEL =       8.2164E-05                   WEL =       1.5770E-05     SSM_WEL1                         
                 WEL =           0.0000                   WEL =           0.0000     SSM_WEL2                         

           TOTAL OUT =       1.1000E-02             TOTAL OUT =       5.0000E-04

            IN - OUT =       3.0665E-08              IN - OUT =       1.7267E-09

 PERCENT DISCREPANCY =           0.00     PERCENT DISCREPANCY =           0.00




         TIME SUMMARY AT END OF TIME STEP   11 IN STRESS PERIOD    1
                    SECONDS     MINUTES      HOURS       DAYS        YEARS
                    -----------------------------------------------------------
   TIME STEP LENGTH 1.72800E+05  2880.0      48.000      2.0000     5.47570E-03
 STRESS PERIOD TIME 1.90080E+06  31680.      528.00      22.000     6.02327E-02
         TOTAL TIME 1.90080E+06  31680.      528.00      22.000     6.02327E-02


end timestep


start timestep kper="1" kstp="12" mode="normal"

 UBDSV1 SAVING     FLOW-JA-FACE ON UNIT   1030 AT TIME STEP     12, STRESS PERIOD      1
 UBDSV1 SAVING  STORAGE-AQUEOUS ON UNIT   1030 AT TIME STEP     12, STRESS PERIOD      1
 UBDSV06 SAVING  SOURCE-SINK MIX IN MODEL SVA_TM_T         PACKAGE SVA_TM_T        CONNECTED TO MODEL SVA_TM_T         PACKAGE SSM              ON UNIT   1030 AT TIME STEP     12, STRESS PERIOD      1

 CONCENTRATION WILL BE SAVED ON UNIT 1031 AT END OF TIME STEP   12, STRESS PERIOD    1


  MASS BUDGET FOR ENTIRE MODEL AT END OF TIME STEP   12, STRESS PERIOD   1
  ---------------------------------------------------------------------------------------------------

     CUMULATIVE MASS      M       RATES FOR THIS TIME STEP      M/T          PACKAGE NAME    
     ------------------                 ------------------------                     ----------------

           IN:                                      IN:
           ---                                      ---
     STORAGE-AQUEOUS =       1.0899E-11       STORAGE-AQUEOUS =       1.5069E-17     MST                              
                 WEL =           0.0000                   WEL =           0.0000     SSM_WEL1                         
                 WEL =       1.2000E-02                   WEL =       5.0000E-04     SSM_WEL2                         

            TOTAL IN =       1.2000E-02              TOTAL IN =       5.0000E-04

          OUT:                                     OUT:
          ----                                     ----
     STORAGE-AQUEOUS =       1.1874E-02       STORAGE-AQUEOUS =       4.7816E-04     MST                              
                 WEL =       1.2584E-04                   WEL =       2.1836E-05     SSM_WEL1                         
                 WEL =           0.0000                   WEL =           0.0000     SSM_WEL2                         

           TOTAL OUT =       1.2000E-02             TOTAL OUT =       5.0000E-04

            IN - OUT =       3.3053E-08              IN - OUT =       1.1937E-09

 PERCENT DISCREPANCY =           0.00     PERCENT DISCREPANCY =           0.00




         TIME SUMMARY AT END OF TIME STEP   12 IN STRESS PERIOD    1
                    SECONDS     MINUTES      HOURS       DAYS        YEARS
                    -----------------------------------------------------------
   TIME STEP LENGTH 1.72800E+05  2880.0      48.000      2.0000     5.47570E-03
 STRESS PERIOD TIME 2.07360E+06  34560.      576.00      24.000     6.57084E-02
         TOTAL TIME 2.07360E+06  34560.      576.00      24.000     6.57084E-02


end timestep


start timestep kper="1" kstp="13" mode="normal"

 UBDSV1 SAVING     FLOW-JA-FACE ON UNIT   1030 AT TIME STEP     13, STRESS PERIOD      1
 UBDSV1 SAVING  STORAGE-AQUEOUS ON UNIT   1030 AT TIME STEP     13, STRESS PERIOD      1
 UBDSV06 SAVING  SOURCE-SINK MIX IN MODEL SVA_TM_T         PACKAGE SVA_TM_T        CONNECTED TO MODEL SVA_TM_T         PACKAGE SSM              ON UNIT   1030 AT TIME STEP     13, STRESS PERIOD      1

 CONCENTRATION WILL BE SAVED ON UNIT 1031 AT END OF TIME STEP   13, STRESS PERIOD    1


  MASS BUDGET FOR ENTIRE MODEL AT END OF TIME STEP   13, STRESS PERIOD   1
  ---------------------------------------------------------------------------------------------------

     CUMULATIVE MASS      M       RATES FOR THIS TIME STEP      M/T          PACKAGE NAME    
     ------------------                 ------------------------                     ----------------

           IN:                                      IN:
           ---                                      ---
     STORAGE-AQUEOUS =       1.0899E-11       STORAGE-AQUEOUS =       8.6049E-18     MST                              
                 WEL =           0.0000                   WEL =           0.0000     SSM_WEL1                         
                 WEL =       1.3000E-02                   WEL =       5.0000E-04     SSM_WEL2                         

            TOTAL IN =       1.3000E-02              TOTAL IN =       5.0000E-04

          OUT:                                     OUT:
          ----                                     ----
     STORAGE-AQUEOUS =       1.2816E-02       STORAGE-AQUEOUS =       4.7118E-04     MST                              
                 WEL =       1.8348E-04                   WEL =       2.8822E-05     SSM_WEL1                         
                 WEL =           0.0000                   WEL =           0.0000     SSM_WEL2                         

           TOTAL OUT =       1.3000E-02             TOTAL OUT =       5.0000E-04

            IN - OUT =       3.6858E-08              IN - OUT =       1.9027E-09

 PERCENT DISCREPANCY =           0.00     PERCENT DISCREPANCY =           0.00




         TIME SUMMARY AT END OF TIME STEP   13 IN STRESS PERIOD    1
                    SECONDS     MINUTES      HOURS       DAYS        YEARS
                    -----------------------------------------------------------
   TIME STEP LENGTH 1.72800E+05  2880.0      48.000      2.0000     5.47570E-03
 STRESS PERIOD TIME 2.24640E+06  37440.      624.00      26.000     7.11841E-02
         TOTAL TIME 2.24640E+06  37440.      624.00      26.000     7.11841E-02


end timestep


start timestep kper="1" kstp="14" mode="normal"

 UBDSV1 SAVING     FLOW-JA-FACE ON UNIT   1030 AT TIME STEP     14, STRESS PERIOD      1
 UBDSV1 SAVING  STORAGE-AQUEOUS ON UNIT   1030 AT TIME STEP     14, STRESS PERIOD      1
 UBDSV06 SAVING  SOURCE-SINK MIX IN MODEL SVA_TM_T         PACKAGE SVA_TM_T        CONNECTED TO MODEL SVA_TM_T         PACKAGE SSM              ON UNIT   1030 AT TIME STEP     14, STRESS PERIOD      1

 CONCENTRATION WILL BE SAVED ON UNIT 1031 AT END OF TIME STEP   14, STRESS PERIOD    1


  MASS BUDGET FOR ENTIRE MODEL AT END OF TIME STEP   14, STRESS PERIOD   1
  ---------------------------------------------------------------------------------------------------

     CUMULATIVE MASS      M       RATES FOR THIS TIME STEP      M/T          PACKAGE NAME    
     ------------------                 ------------------------                     ----------------

           IN:                                      IN:
           ---                                      ---
     STORAGE-AQUEOUS =       1.0899E-11       STORAGE-AQUEOUS =       6.2451E-18     MST                              
                 WEL =           0.0000                   WEL =           0.0000     SSM_WEL1                         
                 WEL =       1.4000E-02                   WEL =       5.0000E-04     SSM_WEL2                         

            TOTAL IN =       1.4000E-02              TOTAL IN =       5.0000E-04

          OUT:                                     OUT:
          ----                                     ----
     STORAGE-AQUEOUS =       1.3743E-02       STORAGE-AQUEOUS =       4.6344E-04     MST                              
                 WEL =       2.5659E-04                   WEL =       3.6555E-05     SSM_WEL1                         
                 WEL =           0.0000                   WEL =           0.0000     SSM_WEL2                         

           TOTAL OUT =       1.4000E-02             TOTAL OUT =       5.0000E-04

            IN - OUT =       4.0893E-08              IN - OUT =       2.0176E-09

 PERCENT DISCREPANCY =           0.00     PERCENT DISCREPANCY =           0.00




         TIME SUMMARY AT END OF TIME STEP   14 IN STRESS PERIOD    1
                    SECONDS     MINUTES      HOURS       DAYS        YEARS
                    -----------------------------------------------------------
   TIME STEP LENGTH 1.72800E+05  2880.0      48.000      2.0000     5.47570E-03
 STRESS PERIOD TIME 2.41920E+06  40320.      672.00      28.000     7.66598E-02
         TOTAL TIME 2.41920E+06  40320.      672.00      28.000     7.66598E-02


end timestep


start timestep kper="1" kstp="15" mode="normal"

 UBDSV1 SAVING     FLOW-JA-FACE ON UNIT   1030 AT TIME STEP     15, STRESS PERIOD      1
 UBDSV1 SAVING  STORAGE-AQUEOUS ON UNIT   1030 AT TIME STEP     15, STRESS PERIOD      1
 UBDSV06 SAVING  SOURCE-SINK MIX IN MODEL SVA_TM_T         PACKAGE SVA_TM_T        CONNECTED TO MODEL SVA_TM_T         PACKAGE SSM              ON UNIT   1030 AT TIME STEP     15, STRESS PERIOD      1

 CONCENTRATION WILL BE SAVED ON UNIT 1031 AT END OF TIME STEP   15, STRESS PERIOD    1


  MASS BUDGET FOR ENTIRE MODEL AT END OF TIME STEP   15, STRESS PERIOD   1
  ---------------------------------------------------------------------------------------------------

     CUMULATIVE MASS      M       RATES FOR THIS TIME STEP      M/T          PACKAGE NAME    
     ------------------                 ------------------------                     ----------------

           IN:                                      IN:
           ---                                      ---
     STORAGE-AQUEOUS =       1.0899E-11       STORAGE-AQUEOUS =       1.0277E-17     MST                              
                 WEL =           0.0000                   WEL =           0.0000     SSM_WEL1                         
                 WEL =       1.5000E-02                   WEL =       5.0000E-04     SSM_WEL2                         

            TOTAL IN =       1.5000E-02              TOTAL IN =       5.0000E-04

          OUT:                                     OUT:
          ----                                     ----
     STORAGE-AQUEOUS =       1.4654E-02       STORAGE-AQUEOUS =       4.5520E-04     MST                              
                 WEL =       3.4619E-04                   WEL =       4.4803E-05     SSM_WEL1                         
                 WEL =           0.0000                   WEL =           0.0000     SSM_WEL2                         

           TOTAL OUT =       1.5000E-02             TOTAL OUT =       5.0000E-04

            IN - OUT =       4.2283E-08              IN - OUT =       6.9494E-10

 PERCENT DISCREPANCY =           0.00     PERCENT DISCREPANCY =           0.00




         TIME SUMMARY AT END OF TIME STEP   15 IN STRESS PERIOD    1
                    SECONDS     MINUTES      HOURS       DAYS        YEARS
                    -----------------------------------------------------------
   TIME STEP LENGTH 1.72800E+05  2880.0      48.000      2.0000     5.47570E-03
 STRESS PERIOD TIME 2.59200E+06  43200.      720.00      30.000     8.21355E-02
         TOTAL TIME 2.59200E+06  43200.      720.00      30.000     8.21355E-02


end timestep


start timestep kper="1" kstp="16" mode="normal"

 UBDSV1 SAVING     FLOW-JA-FACE ON UNIT   1030 AT TIME STEP     16, STRESS PERIOD      1
 UBDSV1 SAVING  STORAGE-AQUEOUS ON UNIT   1030 AT TIME STEP     16, STRESS PERIOD      1
 UBDSV06 SAVING  SOURCE-SINK MIX IN MODEL SVA_TM_T         PACKAGE SVA_TM_T        CONNECTED TO MODEL SVA_TM_T         PACKAGE SSM              ON UNIT   1030 AT TIME STEP     16, STRESS PERIOD      1

 CONCENTRATION WILL BE SAVED ON UNIT 1031 AT END OF TIME STEP   16, STRESS PERIOD    1


  MASS BUDGET FOR ENTIRE MODEL AT END OF TIME STEP   16, STRESS PERIOD   1
  ---------------------------------------------------------------------------------------------------

     CUMULATIVE MASS      M       RATES FOR THIS TIME STEP      M/T          PACKAGE NAME    
     ------------------                 ------------------------                     ----------------

           IN:                                      IN:
           ---                                      ---
     STORAGE-AQUEOUS =       1.0899E-11       STORAGE-AQUEOUS =       1.3213E-17     MST                              
                 WEL =           0.0000                   WEL =           0.0000     SSM_WEL1                         
                 WEL =       1.6000E-02                   WEL =       5.0000E-04     SSM_WEL2                         

            TOTAL IN =       1.6000E-02              TOTAL IN =       5.0000E-04

          OUT:                                     OUT:
          ----                                     ----
     STORAGE-AQUEOUS =       1.5547E-02       STORAGE-AQUEOUS =       4.4666E-04     MST                              
                 WEL =       4.5287E-04                   WEL =       5.3337E-05     SSM_WEL1                         
                 WEL =           0.0000                   WEL =           0.0000     SSM_WEL2                         

           TOTAL OUT =       1.6000E-02             TOTAL OUT =       5.0000E-04

            IN - OUT =       4.3949E-08              IN - OUT =       8.3299E-10

 PERCENT DISCREPANCY =           0.00     PERCENT DISCREPANCY =           0.00




         TIME SUMMARY AT END OF TIME STEP   16 IN STRESS PERIOD    1
                    SECONDS     MINUTES      HOURS       DAYS        YEARS
                    -----------------------------------------------------------
   TIME STEP LENGTH 1.72800E+05  2880.0      48.000      2.0000     5.47570E-03
 STRESS PERIOD TIME 2.76480E+06  46080.      768.00      32.000     8.76112E-02
         TOTAL TIME 2.76480E+06  46080.      768.00      32.000     8.76112E-02


end timestep


start timestep kper="1" kstp="17" mode="normal"

 UBDSV1 SAVING     FLOW-JA-FACE ON UNIT   1030 AT TIME STEP     17, STRESS PERIOD      1
 UBDSV1 SAVING  STORAGE-AQUEOUS ON UNIT   1030 AT TIME STEP     17, STRESS PERIOD      1
 UBDSV06 SAVING  SOURCE-SINK MIX IN MODEL SVA_TM_T         PACKAGE SVA_TM_T        CONNECTED TO MODEL SVA_TM_T         PACKAGE SSM              ON UNIT   1030 AT TIME STEP     17, STRESS PERIOD      1

 CONCENTRATION WILL BE SAVED ON UNIT 1031 AT END OF TIME STEP   17, STRESS PERIOD    1


  MASS BUDGET FOR ENTIRE MODEL AT END OF TIME STEP   17, STRESS PERIOD   1
  ---------------------------------------------------------------------------------------------------

     CUMULATIVE MASS      M       RATES FOR THIS TIME STEP      M/T          PACKAGE NAME    
     ------------------                 ------------------------                     ----------------

           IN:                                      IN:
           ---                                      ---
     STORAGE-AQUEOUS =       1.0899E-11       STORAGE-AQUEOUS =       1.3377E-17     MST                              
                 WEL =           0.0000                   WEL =           0.0000     SSM_WEL1                         
                 WEL =       1.7000E-02                   WEL =       5.0000E-04     SSM_WEL2                         

            TOTAL IN =       1.7000E-02              TOTAL IN =       5.0000E-04

          OUT:                                     OUT:
          ----                                     ----
     STORAGE-AQUEOUS =       1.6423E-02       STORAGE-AQUEOUS =       4.3799E-04     MST                              
                 WEL =       5.7689E-04                   WEL =       6.2012E-05     SSM_WEL1                         
                 WEL =           0.0000                   WEL =           0.0000     SSM_WEL2                         

           TOTAL OUT =       1.7000E-02             TOTAL OUT =       5.0000E-04

            IN - OUT =       4.5601E-08              IN - OUT =       8.2602E-10

 PERCENT DISCREPANCY =           0.00     PERCENT DISCREPANCY =           0.00




         TIME SUMMARY AT END OF TIME STEP   17 IN STRESS PERIOD    1
                    SECONDS     MINUTES      HOURS       DAYS        YEARS
                    -----------------------------------------------------------
   TIME STEP LENGTH 1.72800E+05  2880.0      48.000      2.0000     5.47570E-03
 STRESS PERIOD TIME 2.93760E+06  48960.      816.00      34.000     9.30869E-02
         TOTAL TIME 2.93760E+06  48960.      816.00      34.000     9.30869E-02


end timestep


start timestep kper="1" kstp="18" mode="normal"

 UBDSV1 SAVING     FLOW-JA-FACE ON UNIT   1030 AT TIME STEP     18, STRESS PERIOD      1
 UBDSV1 SAVING  STORAGE-AQUEOUS ON UNIT   1030 AT TIME STEP     18, STRESS PERIOD      1
 UBDSV06 SAVING  SOURCE-SINK MIX IN MODEL SVA_TM_T         PACKAGE SVA_TM_T        CONNECTED TO MODEL SVA_TM_T         PACKAGE SSM              ON UNIT   1030 AT TIME STEP     18, STRESS PERIOD      1

 CONCENTRATION WILL BE SAVED ON UNIT 1031 AT END OF TIME STEP   18, STRESS PERIOD    1


  MASS BUDGET FOR ENTIRE MODEL AT END OF TIME STEP   18, STRESS PERIOD   1
  ---------------------------------------------------------------------------------------------------

     CUMULATIVE MASS      M       RATES FOR THIS TIME STEP      M/T          PACKAGE NAME    
     ------------------                 ------------------------                     ----------------

           IN:                                      IN:
           ---                                      ---
     STORAGE-AQUEOUS =       1.0899E-11       STORAGE-AQUEOUS =       8.3724E-18     MST                              
                 WEL =           0.0000                   WEL =           0.0000     SSM_WEL1                         
                 WEL =       1.8000E-02                   WEL =       5.0000E-04     SSM_WEL2                         

            TOTAL IN =       1.8000E-02              TOTAL IN =       5.0000E-04

          OUT:                                     OUT:
          ----                                     ----
     STORAGE-AQUEOUS =       1.7282E-02       STORAGE-AQUEOUS =       4.2924E-04     MST                              
                 WEL =       7.1841E-04                   WEL =       7.0757E-05     SSM_WEL1                         
                 WEL =           0.0000                   WEL =           0.0000     SSM_WEL2                         

           TOTAL OUT =       1.8000E-02             TOTAL OUT =       5.0000E-04

            IN - OUT =       4.6755E-08              IN - OUT =       5.7689E-10

 PERCENT DISCREPANCY =           0.00     PERCENT DISCREPANCY =           0.00




         TIME SUMMARY AT END OF TIME STEP   18 IN STRESS PERIOD    1
                    SECONDS     MINUTES      HOURS       DAYS        YEARS
                    -----------------------------------------------------------
   TIME STEP LENGTH 1.72800E+05  2880.0      48.000      2.0000     5.47570E-03
 STRESS PERIOD TIME 3.11040E+06  51840.      864.00      36.000     9.85626E-02
         TOTAL TIME 3.11040E+06  51840.      864.00      36.000     9.85626E-02


end timestep


start timestep kper="1" kstp="19" mode="normal"

 UBDSV1 SAVING     FLOW-JA-FACE ON UNIT   1030 AT TIME STEP     19, STRESS PERIOD      1
 UBDSV1 SAVING  STORAGE-AQUEOUS ON UNIT   1030 AT TIME STEP     19, STRESS PERIOD      1
 UBDSV06 SAVING  SOURCE-SINK MIX IN MODEL SVA_TM_T         PACKAGE SVA_TM_T        CONNECTED TO MODEL SVA_TM_T         PACKAGE SSM              ON UNIT   1030 AT TIME STEP     19, STRESS PERIOD      1

 CONCENTRATION WILL BE SAVED ON UNIT 1031 AT END OF TIME STEP   19, STRESS PERIOD    1


  MASS BUDGET FOR ENTIRE MODEL AT END OF TIME STEP   19, STRESS PERIOD   1
  ---------------------------------------------------------------------------------------------------

     CUMULATIVE MASS      M       RATES FOR THIS TIME STEP      M/T          PACKAGE NAME    
     ------------------                 ------------------------                     ----------------

           IN:                                      IN:
           ---                                      ---
     STORAGE-AQUEOUS =       1.0899E-11       STORAGE-AQUEOUS =       5.1298E-18     MST                              
                 WEL =           0.0000                   WEL =           0.0000     SSM_WEL1                         
                 WEL =       1.9000E-02                   WEL =       5.0000E-04     SSM_WEL2                         

            TOTAL IN =       1.9000E-02              TOTAL IN =       5.0000E-04

          OUT:                                     OUT:
          ----                                     ----
     STORAGE-AQUEOUS =       1.8123E-02       STORAGE-AQUEOUS =       4.2050E-04     MST                              
                 WEL =       8.7741E-04                   WEL =       7.9503E-05     SSM_WEL1                         
                 WEL =           0.0000                   WEL =           0.0000     SSM_WEL2                         

           TOTAL OUT =       1.9000E-02             TOTAL OUT =       5.0000E-04

            IN - OUT =       4.7597E-08              IN - OUT =       4.2087E-10

 PERCENT DISCREPANCY =           0.00     PERCENT DISCREPANCY =           0.00




         TIME SUMMARY AT END OF TIME STEP   19 IN STRESS PERIOD    1
                    SECONDS     MINUTES      HOURS       DAYS        YEARS
                    -----------------------------------------------------------
   TIME STEP LENGTH 1.72800E+05  2880.0      48.000      2.0000     5.47570E-03
 STRESS PERIOD TIME 3.28320E+06  54720.      912.00      38.000     0.10404    
         TOTAL TIME 3.28320E+06  54720.      912.00      38.000     0.10404    


end timestep


start timestep kper="1" kstp="20" mode="normal"

 UBDSV1 SAVING     FLOW-JA-FACE ON UNIT   1030 AT TIME STEP     20, STRESS PERIOD      1
 UBDSV1 SAVING  STORAGE-AQUEOUS ON UNIT   1030 AT TIME STEP     20, STRESS PERIOD      1
 UBDSV06 SAVING  SOURCE-SINK MIX IN MODEL SVA_TM_T         PACKAGE SVA_TM_T        CONNECTED TO MODEL SVA_TM_T         PACKAGE SSM              ON UNIT   1030 AT TIME STEP     20, STRESS PERIOD      1

 CONCENTRATION WILL BE SAVED ON UNIT 1031 AT END OF TIME STEP   20, STRESS PERIOD    1


  MASS BUDGET FOR ENTIRE MODEL AT END OF TIME STEP   20, STRESS PERIOD   1
  ---------------------------------------------------------------------------------------------------

     CUMULATIVE MASS      M       RATES FOR THIS TIME STEP      M/T          PACKAGE NAME    
     ------------------                 ------------------------                     ----------------

           IN:                                      IN:
           ---                                      ---
     STORAGE-AQUEOUS =       1.0899E-11       STORAGE-AQUEOUS =       2.1619E-18     MST                              
                 WEL =           0.0000                   WEL =           0.0000     SSM_WEL1                         
                 WEL =       2.0000E-02                   WEL =       5.0000E-04     SSM_WEL2                         

            TOTAL IN =       2.0000E-02              TOTAL IN =       5.0000E-04

          OUT:                                     OUT:
          ----                                     ----
     STORAGE-AQUEOUS =       1.8946E-02       STORAGE-AQUEOUS =       4.1180E-04     MST                              
                 WEL =       1.0538E-03                   WEL =       8.8197E-05     SSM_WEL1                         
                 WEL =           0.0000                   WEL =           0.0000     SSM_WEL2                         

           TOTAL OUT =       2.0000E-02             TOTAL OUT =       5.0000E-04

            IN - OUT =       4.8460E-08              IN - OUT =       4.3167E-10

 PERCENT DISCREPANCY =           0.00     PERCENT DISCREPANCY =           0.00




         TIME SUMMARY AT END OF TIME STEP   20 IN STRESS PERIOD    1
                    SECONDS     MINUTES      HOURS       DAYS        YEARS
                    -----------------------------------------------------------
   TIME STEP LENGTH 1.72800E+05  2880.0      48.000      2.0000     5.47570E-03
 STRESS PERIOD TIME 3.45600E+06  57600.      960.00      40.000     0.10951    
         TOTAL TIME 3.45600E+06  57600.      960.00      40.000     0.10951    


end timestep


start timestep kper="1" kstp="21" mode="normal"

 UBDSV1 SAVING     FLOW-JA-FACE ON UNIT   1030 AT TIME STEP     21, STRESS PERIOD      1
 UBDSV1 SAVING  STORAGE-AQUEOUS ON UNIT   1030 AT TIME STEP     21, STRESS PERIOD      1
 UBDSV06 SAVING  SOURCE-SINK MIX IN MODEL SVA_TM_T         PACKAGE SVA_TM_T        CONNECTED TO MODEL SVA_TM_T         PACKAGE SSM              ON UNIT   1030 AT TIME STEP     21, STRESS PERIOD      1

 CONCENTRATION WILL BE SAVED ON UNIT 1031 AT END OF TIME STEP   21, STRESS PERIOD    1


  MASS BUDGET FOR ENTIRE MODEL AT END OF TIME STEP   21, STRESS PERIOD   1
  ---------------------------------------------------------------------------------------------------

     CUMULATIVE MASS      M       RATES FOR THIS TIME STEP      M/T          PACKAGE NAME    
     ------------------                 ------------------------                     ----------------

           IN:                                      IN:
           ---                                      ---
     STORAGE-AQUEOUS =       1.0899E-11       STORAGE-AQUEOUS =       2.2310E-18     MST                              
                 WEL =           0.0000                   WEL =           0.0000     SSM_WEL1                         
                 WEL =       2.1000E-02                   WEL =       5.0000E-04     SSM_WEL2                         

            TOTAL IN =       2.1000E-02              TOTAL IN =       5.0000E-04

          OUT:                                     OUT:
          ----                                     ----
     STORAGE-AQUEOUS =       1.9753E-02       STORAGE-AQUEOUS =       4.0322E-04     MST                              
                 WEL =       1.2474E-03                   WEL =       9.6779E-05     SSM_WEL1                         
                 WEL =           0.0000                   WEL =           0.0000     SSM_WEL2                         

           TOTAL OUT =       2.1000E-02             TOTAL OUT =       5.0000E-04

            IN - OUT =       4.9895E-08              IN - OUT =       7.1749E-10

 PERCENT DISCREPANCY =           0.00     PERCENT DISCREPANCY =           0.00




         TIME SUMMARY AT END OF TIME STEP   21 IN STRESS PERIOD    1
                    SECONDS     MINUTES      HOURS       DAYS        YEARS
                    -----------------------------------------------------------
   TIME STEP LENGTH 1.72800E+05  2880.0      48.000      2.0000     5.47570E-03
 STRESS PERIOD TIME 3.62880E+06  60480.      1008.0      42.000     0.11499    
         TOTAL TIME 3.62880E+06  60480.      1008.0      42.000     0.11499    


end timestep


start timestep kper="1" kstp="22" mode="normal"

 UBDSV1 SAVING     FLOW-JA-FACE ON UNIT   1030 AT TIME STEP     22, STRESS PERIOD      1
 UBDSV1 SAVING  STORAGE-AQUEOUS ON UNIT   1030 AT TIME STEP     22, STRESS PERIOD      1
 UBDSV06 SAVING  SOURCE-SINK MIX IN MODEL SVA_TM_T         PACKAGE SVA_TM_T        CONNECTED TO MODEL SVA_TM_T         PACKAGE SSM              ON UNIT   1030 AT TIME STEP     22, STRESS PERIOD      1

 CONCENTRATION WILL BE SAVED ON UNIT 1031 AT END OF TIME STEP   22, STRESS PERIOD    1


  MASS BUDGET FOR ENTIRE MODEL AT END OF TIME STEP   22, STRESS PERIOD   1
  ---------------------------------------------------------------------------------------------------

     CUMULATIVE MASS      M       RATES FOR THIS TIME STEP      M/T          PACKAGE NAME    
     ------------------                 ------------------------                     ----------------

           IN:                                      IN:
           ---                                      ---
     STORAGE-AQUEOUS =       1.0899E-11       STORAGE-AQUEOUS =       2.6525E-18     MST                              
                 WEL =           0.0000                   WEL =           0.0000     SSM_WEL1                         
                 WEL =       2.2000E-02                   WEL =       5.0000E-04     SSM_WEL2                         

            TOTAL IN =       2.2000E-02              TOTAL IN =       5.0000E-04

          OUT:                                     OUT:
          ----                                     ----
     STORAGE-AQUEOUS =       2.0542E-02       STORAGE-AQUEOUS =       3.9483E-04     MST                              
                 WEL =       1.4577E-03                   WEL =       1.0517E-04     SSM_WEL1                         
                 WEL =           0.0000                   WEL =           0.0000     SSM_WEL2                         

           TOTAL OUT =       2.2000E-02             TOTAL OUT =       5.0000E-04

            IN - OUT =       5.0520E-08              IN - OUT =       3.1226E-10

 PERCENT DISCREPANCY =           0.00     PERCENT DISCREPANCY =           0.00




         TIME SUMMARY AT END OF TIME STEP   22 IN STRESS PERIOD    1
                    SECONDS     MINUTES      HOURS       DAYS        YEARS
                    -----------------------------------------------------------
   TIME STEP LENGTH 1.72800E+05  2880.0      48.000      2.0000     5.47570E-03
 STRESS PERIOD TIME 3.80160E+06  63360.      1056.0      44.000     0.12047    
         TOTAL TIME 3.80160E+06  63360.      1056.0      44.000     0.12047    


end timestep


start timestep kper="1" kstp="23" mode="normal"

 UBDSV1 SAVING     FLOW-JA-FACE ON UNIT   1030 AT TIME STEP     23, STRESS PERIOD      1
 UBDSV1 SAVING  STORAGE-AQUEOUS ON UNIT   1030 AT TIME STEP     23, STRESS PERIOD      1
 UBDSV06 SAVING  SOURCE-SINK MIX IN MODEL SVA_TM_T         PACKAGE SVA_TM_T        CONNECTED TO MODEL SVA_TM_T         PACKAGE SSM              ON UNIT   1030 AT TIME STEP     23, STRESS PERIOD      1

 CONCENTRATION WILL BE SAVED ON UNIT 1031 AT END OF TIME STEP   23, STRESS PERIOD    1


  MASS BUDGET FOR ENTIRE MODEL AT END OF TIME STEP   23, STRESS PERIOD   1
  ---------------------------------------------------------------------------------------------------

     CUMULATIVE MASS      M       RATES FOR THIS TIME STEP      M/T          PACKAGE NAME    
     ------------------                 ------------------------                     ----------------

           IN:                                      IN:
           ---                                      ---
     STORAGE-AQUEOUS =       1.0899E-11       STORAGE-AQUEOUS =       2.7034E-18     MST                              
                 WEL =           0.0000                   WEL =           0.0000     SSM_WEL1                         
                 WEL =       2.3000E-02                   WEL =       5.0000E-04     SSM_WEL2                         

            TOTAL IN =       2.3000E-02              TOTAL IN =       5.0000E-04

          OUT:                                     OUT:
          ----                                     ----
     STORAGE-AQUEOUS =       2.1316E-02       STORAGE-AQUEOUS =       3.8665E-04     MST                              
                 WEL =       1.6844E-03                   WEL =       1.1335E-04     SSM_WEL1                         
                 WEL =           0.0000                   WEL =           0.0000     SSM_WEL2                         

           TOTAL OUT =       2.3000E-02             TOTAL OUT =       5.0000E-04

            IN - OUT =       5.1156E-08              IN - OUT =       3.1841E-10

 PERCENT DISCREPANCY =           0.00     PERCENT DISCREPANCY =           0.00




         TIME SUMMARY AT END OF TIME STEP   23 IN STRESS PERIOD    1
                    SECONDS     MINUTES      HOURS       DAYS        YEARS
                    -----------------------------------------------------------
   TIME STEP LENGTH 1.72800E+05  2880.0      48.000      2.0000     5.47570E-03
 STRESS PERIOD TIME 3.97440E+06  66240.      1104.0      46.000     0.12594    
         TOTAL TIME 3.97440E+06  66240.      1104.0      46.000     0.12594    


end timestep


start timestep kper="1" kstp="24" mode="normal"

 UBDSV1 SAVING     FLOW-JA-FACE ON UNIT   1030 AT TIME STEP     24, STRESS PERIOD      1
 UBDSV1 SAVING  STORAGE-AQUEOUS ON UNIT   1030 AT TIME STEP     24, STRESS PERIOD      1
 UBDSV06 SAVING  SOURCE-SINK MIX IN MODEL SVA_TM_T         PACKAGE SVA_TM_T        CONNECTED TO MODEL SVA_TM_T         PACKAGE SSM              ON UNIT   1030 AT TIME STEP     24, STRESS PERIOD      1

 CONCENTRATION WILL BE SAVED ON UNIT 1031 AT END OF TIME STEP   24, STRESS PERIOD    1


  MASS BUDGET FOR ENTIRE MODEL AT END OF TIME STEP   24, STRESS PERIOD   1
  ---------------------------------------------------------------------------------------------------

     CUMULATIVE MASS      M       RATES FOR THIS TIME STEP      M/T          PACKAGE NAME    
     ------------------                 ------------------------                     ----------------

           IN:                                      IN:
           ---                                      ---
     STORAGE-AQUEOUS =       1.0899E-11       STORAGE-AQUEOUS =       2.0160E-18     MST                              
                 WEL =           0.0000                   WEL =           0.0000     SSM_WEL1                         
                 WEL =       2.4000E-02                   WEL =       5.0000E-04     SSM_WEL2                         

            TOTAL IN =       2.4000E-02              TOTAL IN =       5.0000E-04

          OUT:                                     OUT:
          ----                                     ----
     STORAGE-AQUEOUS =       2.2073E-02       STORAGE-AQUEOUS =       3.7867E-04     MST                              
                 WEL =       1.9270E-03                   WEL =       1.2132E-04     SSM_WEL1                         
                 WEL =           0.0000                   WEL =           0.0000     SSM_WEL2                         

           TOTAL OUT =       2.4000E-02             TOTAL OUT =       5.0000E-04

            IN - OUT =       5.1657E-08              IN - OUT =       2.5029E-10

 PERCENT DISCREPANCY =           0.00     PERCENT DISCREPANCY =           0.00




         TIME SUMMARY AT END OF TIME STEP   24 IN STRESS PERIOD    1
                    SECONDS     MINUTES      HOURS       DAYS        YEARS
                    -----------------------------------------------------------
   TIME STEP LENGTH 1.72800E+05  2880.0      48.000      2.0000     5.47570E-03
 STRESS PERIOD TIME 4.14720E+06  69120.      1152.0      48.000     0.13142    
         TOTAL TIME 4.14720E+06  69120.      1152.0      48.000     0.13142    


end timestep


start timestep kper="1" kstp="25" mode="normal"

 UBDSV1 SAVING     FLOW-JA-FACE ON UNIT   1030 AT TIME STEP     25, STRESS PERIOD      1
 UBDSV1 SAVING  STORAGE-AQUEOUS ON UNIT   1030 AT TIME STEP     25, STRESS PERIOD      1
 UBDSV06 SAVING  SOURCE-SINK MIX IN MODEL SVA_TM_T         PACKAGE SVA_TM_T        CONNECTED TO MODEL SVA_TM_T         PACKAGE SSM              ON UNIT   1030 AT TIME STEP     25, STRESS PERIOD      1

 CONCENTRATION WILL BE SAVED ON UNIT 1031 AT END OF TIME STEP   25, STRESS PERIOD    1


  MASS BUDGET FOR ENTIRE MODEL AT END OF TIME STEP   25, STRESS PERIOD   1
  ---------------------------------------------------------------------------------------------------

     CUMULATIVE MASS      M       RATES FOR THIS TIME STEP      M/T          PACKAGE NAME    
     ------------------                 ------------------------                     ----------------

           IN:                                      IN:
           ---                                      ---
     STORAGE-AQUEOUS =       1.0899E-11       STORAGE-AQUEOUS =       1.2263E-18     MST                              
                 WEL =           0.0000                   WEL =           0.0000     SSM_WEL1                         
                 WEL =       2.5000E-02                   WEL =       5.0000E-04     SSM_WEL2                         

            TOTAL IN =       2.5000E-02              TOTAL IN =       5.0000E-04

          OUT:                                     OUT:
          ----                                     ----
     STORAGE-AQUEOUS =       2.2815E-02       STORAGE-AQUEOUS =       3.7091E-04     MST                              
                 WEL =       2.1852E-03                   WEL =       1.2909E-04     SSM_WEL1                         
                 WEL =           0.0000                   WEL =           0.0000     SSM_WEL2                         

           TOTAL OUT =       2.5000E-02             TOTAL OUT =       5.0000E-04

            IN - OUT =       5.2431E-08              IN - OUT =       3.8726E-10

 PERCENT DISCREPANCY =           0.00     PERCENT DISCREPANCY =           0.00




         TIME SUMMARY AT END OF TIME STEP   25 IN STRESS PERIOD    1
                    SECONDS     MINUTES      HOURS       DAYS        YEARS
                    -----------------------------------------------------------
   TIME STEP LENGTH 1.72800E+05  2880.0      48.000      2.0000     5.47570E-03
 STRESS PERIOD TIME 4.32000E+06  72000.      1200.0      50.000     0.13689    
         TOTAL TIME 4.32000E+06  72000.      1200.0      50.000     0.13689    


end timestep


start timestep kper="1" kstp="26" mode="normal"

 UBDSV1 SAVING     FLOW-JA-FACE ON UNIT   1030 AT TIME STEP     26, STRESS PERIOD      1
 UBDSV1 SAVING  STORAGE-AQUEOUS ON UNIT   1030 AT TIME STEP     26, STRESS PERIOD      1
 UBDSV06 SAVING  SOURCE-SINK MIX IN MODEL SVA_TM_T         PACKAGE SVA_TM_T        CONNECTED TO MODEL SVA_TM_T         PACKAGE SSM              ON UNIT   1030 AT TIME STEP     26, STRESS PERIOD      1

 CONCENTRATION WILL BE SAVED ON UNIT 1031 AT END OF TIME STEP   26, STRESS PERIOD    1


  MASS BUDGET FOR ENTIRE MODEL AT END OF TIME STEP   26, STRESS PERIOD   1
  ---------------------------------------------------------------------------------------------------

     CUMULATIVE MASS      M       RATES FOR THIS TIME STEP      M/T          PACKAGE NAME    
     ------------------                 ------------------------                     ----------------

           IN:                                      IN:
           ---                                      ---
     STORAGE-AQUEOUS =       1.0899E-11       STORAGE-AQUEOUS =       8.4143E-19     MST                              
                 WEL =           0.0000                   WEL =           0.0000     SSM_WEL1                         
                 WEL =       2.6000E-02                   WEL =       5.0000E-04     SSM_WEL2                         

            TOTAL IN =       2.6000E-02              TOTAL IN =       5.0000E-04

          OUT:                                     OUT:
          ----                                     ----
     STORAGE-AQUEOUS =       2.3541E-02       STORAGE-AQUEOUS =       3.6337E-04     MST                              
                 WEL =       2.4585E-03                   WEL =       1.3663E-04     SSM_WEL1                         
                 WEL =           0.0000                   WEL =           0.0000     SSM_WEL2                         

           TOTAL OUT =       2.6000E-02             TOTAL OUT =       5.0000E-04

            IN - OUT =       5.2878E-08              IN - OUT =       2.2313E-10

 PERCENT DISCREPANCY =           0.00     PERCENT DISCREPANCY =           0.00




         TIME SUMMARY AT END OF TIME STEP   26 IN STRESS PERIOD    1
                    SECONDS     MINUTES      HOURS       DAYS        YEARS
                    -----------------------------------------------------------
   TIME STEP LENGTH 1.72800E+05  2880.0      48.000      2.0000     5.47570E-03
 STRESS PERIOD TIME 4.49280E+06  74880.      1248.0      52.000     0.14237    
         TOTAL TIME 4.49280E+06  74880.      1248.0      52.000     0.14237    


end timestep


start timestep kper="1" kstp="27" mode="normal"

 UBDSV1 SAVING     FLOW-JA-FACE ON UNIT   1030 AT TIME STEP     27, STRESS PERIOD      1
 UBDSV1 SAVING  STORAGE-AQUEOUS ON UNIT   1030 AT TIME STEP     27, STRESS PERIOD      1
 UBDSV06 SAVING  SOURCE-SINK MIX IN MODEL SVA_TM_T         PACKAGE SVA_TM_T        CONNECTED TO MODEL SVA_TM_T         PACKAGE SSM              ON UNIT   1030 AT TIME STEP     27, STRESS PERIOD      1

 CONCENTRATION WILL BE SAVED ON UNIT 1031 AT END OF TIME STEP   27, STRESS PERIOD    1


  MASS BUDGET FOR ENTIRE MODEL AT END OF TIME STEP   27, STRESS PERIOD   1
  ---------------------------------------------------------------------------------------------------

     CUMULATIVE MASS      M       RATES FOR THIS TIME STEP      M/T          PACKAGE NAME    
     ------------------                 ------------------------                     ----------------

           IN:                                      IN:
           ---                                      ---
     STORAGE-AQUEOUS =       1.0899E-11       STORAGE-AQUEOUS =       5.3899E-19     MST                              
                 WEL =           0.0000                   WEL =           0.0000     SSM_WEL1                         
                 WEL =       2.7000E-02                   WEL =       5.0000E-04     SSM_WEL2                         

            TOTAL IN =       2.7000E-02              TOTAL IN =       5.0000E-04

          OUT:                                     OUT:
          ----                                     ----
     STORAGE-AQUEOUS =       2.4254E-02       STORAGE-AQUEOUS =       3.5605E-04     MST                              
                 WEL =       2.7464E-03                   WEL =       1.4396E-04     SSM_WEL1                         
                 WEL =           0.0000                   WEL =           0.0000     SSM_WEL2                         

           TOTAL OUT =       2.7000E-02             TOTAL OUT =       5.0000E-04

            IN - OUT =       5.0482E-08              IN - OUT =      -1.1981E-09

 PERCENT DISCREPANCY =           0.00     PERCENT DISCREPANCY =          -0.00




         TIME SUMMARY AT END OF TIME STEP   27 IN STRESS PERIOD    1
                    SECONDS     MINUTES      HOURS       DAYS        YEARS
                    -----------------------------------------------------------
   TIME STEP LENGTH 1.72800E+05  2880.0      48.000      2.0000     5.47570E-03
 STRESS PERIOD TIME 4.66560E+06  77760.      1296.0      54.000     0.14784    
         TOTAL TIME 4.66560E+06  77760.      1296.0      54.000     0.14784    


end timestep


start timestep kper="1" kstp="28" mode="normal"

 UBDSV1 SAVING     FLOW-JA-FACE ON UNIT   1030 AT TIME STEP     28, STRESS PERIOD      1
 UBDSV1 SAVING  STORAGE-AQUEOUS ON UNIT   1030 AT TIME STEP     28, STRESS PERIOD      1
 UBDSV06 SAVING  SOURCE-SINK MIX IN MODEL SVA_TM_T         PACKAGE SVA_TM_T        CONNECTED TO MODEL SVA_TM_T         PACKAGE SSM              ON UNIT   1030 AT TIME STEP     28, STRESS PERIOD      1

 CONCENTRATION WILL BE SAVED ON UNIT 1031 AT END OF TIME STEP   28, STRESS PERIOD    1


  MASS BUDGET FOR ENTIRE MODEL AT END OF TIME STEP   28, STRESS PERIOD   1
  ---------------------------------------------------------------------------------------------------

     CUMULATIVE MASS      M       RATES FOR THIS TIME STEP      M/T          PACKAGE NAME    
     ------------------                 ------------------------                     ----------------

           IN:                                      IN:
           ---                                      ---
     STORAGE-AQUEOUS =       1.0899E-11       STORAGE-AQUEOUS =       2.5523E-19     MST                              
                 WEL =           0.0000                   WEL =           0.0000     SSM_WEL1                         
                 WEL =       2.8000E-02                   WEL =       5.0000E-04     SSM_WEL2                         

            TOTAL IN =       2.8000E-02              TOTAL IN =       5.0000E-04

          OUT:                                     OUT:
          ----                                     ----
     STORAGE-AQUEOUS =       2.4951E-02       STORAGE-AQUEOUS =       3.4895E-04     MST                              
                 WEL =       3.0485E-03                   WEL =       1.5105E-04     SSM_WEL1                         
                 WEL =           0.0000                   WEL =           0.0000     SSM_WEL2                         

           TOTAL OUT =       2.8000E-02             TOTAL OUT =       5.0000E-04

            IN - OUT =       4.5362E-08              IN - OUT =      -2.5600E-09

 PERCENT DISCREPANCY =           0.00     PERCENT DISCREPANCY =          -0.00




         TIME SUMMARY AT END OF TIME STEP   28 IN STRESS PERIOD    1
                    SECONDS     MINUTES      HOURS       DAYS        YEARS
                    -----------------------------------------------------------
   TIME STEP LENGTH 1.72800E+05  2880.0      48.000      2.0000     5.47570E-03
 STRESS PERIOD TIME 4.83840E+06  80640.      1344.0      56.000     0.15332    
         TOTAL TIME 4.83840E+06  80640.      1344.0      56.000     0.15332    


end timestep


start timestep kper="1" kstp="29" mode="normal"

 UBDSV1 SAVING     FLOW-JA-FACE ON UNIT   1030 AT TIME STEP     29, STRESS PERIOD      1
 UBDSV1 SAVING  STORAGE-AQUEOUS ON UNIT   1030 AT TIME STEP     29, STRESS PERIOD      1
 UBDSV06 SAVING  SOURCE-SINK MIX IN MODEL SVA_TM_T         PACKAGE SVA_TM_T        CONNECTED TO MODEL SVA_TM_T         PACKAGE SSM              ON UNIT   1030 AT TIME STEP     29, STRESS PERIOD      1

 CONCENTRATION WILL BE SAVED ON UNIT 1031 AT END OF TIME STEP   29, STRESS PERIOD    1


  MASS BUDGET FOR ENTIRE MODEL AT END OF TIME STEP   29, STRESS PERIOD   1
  ---------------------------------------------------------------------------------------------------

     CUMULATIVE MASS      M       RATES FOR THIS TIME STEP      M/T          PACKAGE NAME    
     ------------------                 ------------------------                     ----------------

           IN:                                      IN:
           ---                                      ---
     STORAGE-AQUEOUS =       1.0899E-11       STORAGE-AQUEOUS =       8.4305E-20     MST                              
                 WEL =           0.0000                   WEL =           0.0000     SSM_WEL1                         
                 WEL =       2.9000E-02                   WEL =       5.0000E-04     SSM_WEL2                         

            TOTAL IN =       2.9000E-02              TOTAL IN =       5.0000E-04

          OUT:                                     OUT:
          ----                                     ----
     STORAGE-AQUEOUS =       2.5636E-02       STORAGE-AQUEOUS =       3.4210E-04     MST                              
                 WEL =       3.3643E-03                   WEL =       1.5791E-04     SSM_WEL1                         
                 WEL =           0.0000                   WEL =           0.0000     SSM_WEL2                         

           TOTAL OUT =       2.9000E-02             TOTAL OUT =       5.0001E-04

            IN - OUT =       3.1064E-08              IN - OUT =      -7.1486E-09

 PERCENT DISCREPANCY =           0.00     PERCENT DISCREPANCY =          -0.00




         TIME SUMMARY AT END OF TIME STEP   29 IN STRESS PERIOD    1
                    SECONDS     MINUTES      HOURS       DAYS        YEARS
                    -----------------------------------------------------------
   TIME STEP LENGTH 1.72800E+05  2880.0      48.000      2.0000     5.47570E-03
 STRESS PERIOD TIME 5.01120E+06  83520.      1392.0      58.000     0.15880    
         TOTAL TIME 5.01120E+06  83520.      1392.0      58.000     0.15880    


end timestep


start timestep kper="1" kstp="30" mode="normal"

 UBDSV1 SAVING     FLOW-JA-FACE ON UNIT   1030 AT TIME STEP     30, STRESS PERIOD      1
 UBDSV1 SAVING  STORAGE-AQUEOUS ON UNIT   1030 AT TIME STEP     30, STRESS PERIOD      1
 UBDSV06 SAVING  SOURCE-SINK MIX IN MODEL SVA_TM_T         PACKAGE SVA_TM_T        CONNECTED TO MODEL SVA_TM_T         PACKAGE SSM              ON UNIT   1030 AT TIME STEP     30, STRESS PERIOD      1

 CONCENTRATION WILL BE SAVED ON UNIT 1031 AT END OF TIME STEP   30, STRESS PERIOD    1


  MASS BUDGET FOR ENTIRE MODEL AT END OF TIME STEP   30, STRESS PERIOD   1
  ---------------------------------------------------------------------------------------------------

     CUMULATIVE MASS      M       RATES FOR THIS TIME STEP      M/T          PACKAGE NAME    
     ------------------                 ------------------------                     ----------------

           IN:                                      IN:
           ---                                      ---
     STORAGE-AQUEOUS =       1.0899E-11       STORAGE-AQUEOUS =       6.2444E-20     MST                              
                 WEL =           0.0000                   WEL =           0.0000     SSM_WEL1                         
                 WEL =       3.0000E-02                   WEL =       5.0000E-04     SSM_WEL2                         

            TOTAL IN =       3.0000E-02              TOTAL IN =       5.0000E-04

          OUT:                                     OUT:
          ----                                     ----
     STORAGE-AQUEOUS =       2.6307E-02       STORAGE-AQUEOUS =       3.3547E-04     MST                              
                 WEL =       3.6934E-03                   WEL =       1.6453E-04     SSM_WEL1                         
                 WEL =           0.0000                   WEL =           0.0000     SSM_WEL2                         

           TOTAL OUT =       3.0000E-02             TOTAL OUT =       5.0001E-04

            IN - OUT =       1.7687E-08              IN - OUT =      -6.6887E-09

 PERCENT DISCREPANCY =           0.00     PERCENT DISCREPANCY =          -0.00




         TIME SUMMARY AT END OF TIME STEP   30 IN STRESS PERIOD    1
                    SECONDS     MINUTES      HOURS       DAYS        YEARS
                    -----------------------------------------------------------
   TIME STEP LENGTH 1.72800E+05  2880.0      48.000      2.0000     5.47570E-03
 STRESS PERIOD TIME 5.18400E+06  86400.      1440.0      60.000     0.16427    
         TOTAL TIME 5.18400E+06  86400.      1440.0      60.000     0.16427    


end timestep


start timestep kper="1" kstp="31" mode="normal"

 UBDSV1 SAVING     FLOW-JA-FACE ON UNIT   1030 AT TIME STEP     31, STRESS PERIOD      1
 UBDSV1 SAVING  STORAGE-AQUEOUS ON UNIT   1030 AT TIME STEP     31, STRESS PERIOD      1
 UBDSV06 SAVING  SOURCE-SINK MIX IN MODEL SVA_TM_T         PACKAGE SVA_TM_T        CONNECTED TO MODEL SVA_TM_T         PACKAGE SSM              ON UNIT   1030 AT TIME STEP     31, STRESS PERIOD      1

 CONCENTRATION WILL BE SAVED ON UNIT 1031 AT END OF TIME STEP   31, STRESS PERIOD    1


  MASS BUDGET FOR ENTIRE MODEL AT END OF TIME STEP   31, STRESS PERIOD   1
  ---------------------------------------------------------------------------------------------------

     CUMULATIVE MASS      M       RATES FOR THIS TIME STEP      M/T          PACKAGE NAME    
     ------------------                 ------------------------                     ----------------

           IN:                                      IN:
           ---                                      ---
     STORAGE-AQUEOUS =       1.0899E-11       STORAGE-AQUEOUS =       4.1924E-20     MST                              
                 WEL =           0.0000                   WEL =           0.0000     SSM_WEL1                         
                 WEL =       3.1000E-02                   WEL =       5.0000E-04     SSM_WEL2                         

            TOTAL IN =       3.1000E-02              TOTAL IN =       5.0000E-04

          OUT:                                     OUT:
          ----                                     ----
     STORAGE-AQUEOUS =       2.6965E-02       STORAGE-AQUEOUS =       3.2908E-04     MST                              
                 WEL =       4.0352E-03                   WEL =       1.7092E-04     SSM_WEL1                         
                 WEL =           0.0000                   WEL =           0.0000     SSM_WEL2                         

           TOTAL OUT =       3.1000E-02             TOTAL OUT =       5.0001E-04

            IN - OUT =       4.6242E-09              IN - OUT =      -6.5314E-09

 PERCENT DISCREPANCY =           0.00     PERCENT DISCREPANCY =          -0.00




         TIME SUMMARY AT END OF TIME STEP   31 IN STRESS PERIOD    1
                    SECONDS     MINUTES      HOURS       DAYS        YEARS
                    -----------------------------------------------------------
   TIME STEP LENGTH 1.72800E+05  2880.0      48.000      2.0000     5.47570E-03
 STRESS PERIOD TIME 5.35680E+06  89280.      1488.0      62.000     0.16975    
         TOTAL TIME 5.35680E+06  89280.      1488.0      62.000     0.16975    


end timestep


start timestep kper="1" kstp="32" mode="normal"

 UBDSV1 SAVING     FLOW-JA-FACE ON UNIT   1030 AT TIME STEP     32, STRESS PERIOD      1
 UBDSV1 SAVING  STORAGE-AQUEOUS ON UNIT   1030 AT TIME STEP     32, STRESS PERIOD      1
 UBDSV06 SAVING  SOURCE-SINK MIX IN MODEL SVA_TM_T         PACKAGE SVA_TM_T        CONNECTED TO MODEL SVA_TM_T         PACKAGE SSM              ON UNIT   1030 AT TIME STEP     32, STRESS PERIOD      1

 CONCENTRATION WILL BE SAVED ON UNIT 1031 AT END OF TIME STEP   32, STRESS PERIOD    1


  MASS BUDGET FOR ENTIRE MODEL AT END OF TIME STEP   32, STRESS PERIOD   1
  ---------------------------------------------------------------------------------------------------

     CUMULATIVE MASS      M       RATES FOR THIS TIME STEP      M/T          PACKAGE NAME    
     ------------------                 ------------------------                     ----------------

           IN:                                      IN:
           ---                                      ---
     STORAGE-AQUEOUS =       1.0899E-11       STORAGE-AQUEOUS =       2.6373E-20     MST                              
                 WEL =           0.0000                   WEL =           0.0000     SSM_WEL1                         
                 WEL =       3.2000E-02                   WEL =       5.0000E-04     SSM_WEL2                         

            TOTAL IN =       3.2000E-02              TOTAL IN =       5.0000E-04

          OUT:                                     OUT:
          ----                                     ----
     STORAGE-AQUEOUS =       2.7611E-02       STORAGE-AQUEOUS =       3.2293E-04     MST                              
                 WEL =       4.3894E-03                   WEL =       1.7708E-04     SSM_WEL1                         
                 WEL =           0.0000                   WEL =           0.0000     SSM_WEL2                         

           TOTAL OUT =       3.2000E-02             TOTAL OUT =       5.0001E-04

            IN - OUT =      -7.4451E-09              IN - OUT =      -6.0346E-09

 PERCENT DISCREPANCY =          -0.00     PERCENT DISCREPANCY =          -0.00




         TIME SUMMARY AT END OF TIME STEP   32 IN STRESS PERIOD    1
                    SECONDS     MINUTES      HOURS       DAYS        YEARS
                    -----------------------------------------------------------
   TIME STEP LENGTH 1.72800E+05  2880.0      48.000      2.0000     5.47570E-03
 STRESS PERIOD TIME 5.52960E+06  92160.      1536.0      64.000     0.17522    
         TOTAL TIME 5.52960E+06  92160.      1536.0      64.000     0.17522    


end timestep


start timestep kper="1" kstp="33" mode="normal"

 UBDSV1 SAVING     FLOW-JA-FACE ON UNIT   1030 AT TIME STEP     33, STRESS PERIOD      1
 UBDSV1 SAVING  STORAGE-AQUEOUS ON UNIT   1030 AT TIME STEP     33, STRESS PERIOD      1
 UBDSV06 SAVING  SOURCE-SINK MIX IN MODEL SVA_TM_T         PACKAGE SVA_TM_T        CONNECTED TO MODEL SVA_TM_T         PACKAGE SSM              ON UNIT   1030 AT TIME STEP     33, STRESS PERIOD      1

 CONCENTRATION WILL BE SAVED ON UNIT 1031 AT END OF TIME STEP   33, STRESS PERIOD    1


  MASS BUDGET FOR ENTIRE MODEL AT END OF TIME STEP   33, STRESS PERIOD   1
  ---------------------------------------------------------------------------------------------------

     CUMULATIVE MASS      M       RATES FOR THIS TIME STEP      M/T          PACKAGE NAME    
     ------------------                 ------------------------                     ----------------

           IN:                                      IN:
           ---                                      ---
     STORAGE-AQUEOUS =       1.0899E-11       STORAGE-AQUEOUS =       1.9018E-20     MST                              
                 WEL =           0.0000                   WEL =           0.0000     SSM_WEL1                         
                 WEL =       3.3000E-02                   WEL =       5.0000E-04     SSM_WEL2                         

            TOTAL IN =       3.3000E-02              TOTAL IN =       5.0000E-04

          OUT:                                     OUT:
          ----                                     ----
     STORAGE-AQUEOUS =       2.8245E-02       STORAGE-AQUEOUS =       3.1699E-04     MST                              
                 WEL =       4.7554E-03                   WEL =       1.8301E-04     SSM_WEL1                         
                 WEL =           0.0000                   WEL =           0.0000     SSM_WEL2                         

           TOTAL OUT =       3.3000E-02             TOTAL OUT =       5.0001E-04

            IN - OUT =      -1.9068E-08              IN - OUT =      -5.8113E-09

 PERCENT DISCREPANCY =          -0.00     PERCENT DISCREPANCY =          -0.00




         TIME SUMMARY AT END OF TIME STEP   33 IN STRESS PERIOD    1
                    SECONDS     MINUTES      HOURS       DAYS        YEARS
                    -----------------------------------------------------------
   TIME STEP LENGTH 1.72800E+05  2880.0      48.000      2.0000     5.47570E-03
 STRESS PERIOD TIME 5.70240E+06  95040.      1584.0      66.000     0.18070    
         TOTAL TIME 5.70240E+06  95040.      1584.0      66.000     0.18070    


end timestep


start timestep kper="1" kstp="34" mode="normal"

 UBDSV1 SAVING     FLOW-JA-FACE ON UNIT   1030 AT TIME STEP     34, STRESS PERIOD      1
 UBDSV1 SAVING  STORAGE-AQUEOUS ON UNIT   1030 AT TIME STEP     34, STRESS PERIOD      1
 UBDSV06 SAVING  SOURCE-SINK MIX IN MODEL SVA_TM_T         PACKAGE SVA_TM_T        CONNECTED TO MODEL SVA_TM_T         PACKAGE SSM              ON UNIT   1030 AT TIME STEP     34, STRESS PERIOD      1

 CONCENTRATION WILL BE SAVED ON UNIT 1031 AT END OF TIME STEP   34, STRESS PERIOD    1


  MASS BUDGET FOR ENTIRE MODEL AT END OF TIME STEP   34, STRESS PERIOD   1
  ---------------------------------------------------------------------------------------------------

     CUMULATIVE MASS      M       RATES FOR THIS TIME STEP      M/T          PACKAGE NAME    
     ------------------                 ------------------------                     ----------------

           IN:                                      IN:
           ---                                      ---
     STORAGE-AQUEOUS =       1.0899E-11       STORAGE-AQUEOUS =       1.5140E-20     MST                              
                 WEL =           0.0000                   WEL =           0.0000     SSM_WEL1                         
                 WEL =       3.4000E-02                   WEL =       5.0000E-04     SSM_WEL2                         

            TOTAL IN =       3.4000E-02              TOTAL IN =       5.0000E-04

          OUT:                                     OUT:
          ----                                     ----
     STORAGE-AQUEOUS =       2.8867E-02       STORAGE-AQUEOUS =       3.1128E-04     MST                              
                 WEL =       5.1329E-03                   WEL =       1.8872E-04     SSM_WEL1                         
                 WEL =           0.0000                   WEL =           0.0000     SSM_WEL2                         

           TOTAL OUT =       3.4000E-02             TOTAL OUT =       5.0001E-04

            IN - OUT =      -3.0674E-08              IN - OUT =      -5.8031E-09

 PERCENT DISCREPANCY =          -0.00     PERCENT DISCREPANCY =          -0.00




         TIME SUMMARY AT END OF TIME STEP   34 IN STRESS PERIOD    1
                    SECONDS     MINUTES      HOURS       DAYS        YEARS
                    -----------------------------------------------------------
   TIME STEP LENGTH 1.72800E+05  2880.0      48.000      2.0000     5.47570E-03
 STRESS PERIOD TIME 5.87520E+06  97920.      1632.0      68.000     0.18617    
         TOTAL TIME 5.87520E+06  97920.      1632.0      68.000     0.18617    


end timestep


start timestep kper="1" kstp="35" mode="normal"

 UBDSV1 SAVING     FLOW-JA-FACE ON UNIT   1030 AT TIME STEP     35, STRESS PERIOD      1
 UBDSV1 SAVING  STORAGE-AQUEOUS ON UNIT   1030 AT TIME STEP     35, STRESS PERIOD      1
 UBDSV06 SAVING  SOURCE-SINK MIX IN MODEL SVA_TM_T         PACKAGE SVA_TM_T        CONNECTED TO MODEL SVA_TM_T         PACKAGE SSM              ON UNIT   1030 AT TIME STEP     35, STRESS PERIOD      1

 CONCENTRATION WILL BE SAVED ON UNIT 1031 AT END OF TIME STEP   35, STRESS PERIOD    1


  MASS BUDGET FOR ENTIRE MODEL AT END OF TIME STEP   35, STRESS PERIOD   1
  ---------------------------------------------------------------------------------------------------

     CUMULATIVE MASS      M       RATES FOR THIS TIME STEP      M/T          PACKAGE NAME    
     ------------------                 ------------------------                     ----------------

           IN:                                      IN:
           ---                                      ---
     STORAGE-AQUEOUS =       1.0899E-11       STORAGE-AQUEOUS =       1.6680E-20     MST                              
                 WEL =           0.0000                   WEL =           0.0000     SSM_WEL1                         
                 WEL =       3.5000E-02                   WEL =       5.0000E-04     SSM_WEL2                         

            TOTAL IN =       3.5000E-02              TOTAL IN =       5.0000E-04

          OUT:                                     OUT:
          ----                                     ----
     STORAGE-AQUEOUS =       2.9479E-02       STORAGE-AQUEOUS =       3.0583E-04     MST                              
                 WEL =       5.5212E-03                   WEL =       1.9417E-04     SSM_WEL1                         
                 WEL =           0.0000                   WEL =           0.0000     SSM_WEL2                         

           TOTAL OUT =       3.5000E-02             TOTAL OUT =       5.0000E-04

            IN - OUT =      -3.0846E-08              IN - OUT =      -8.6220E-11

 PERCENT DISCREPANCY =          -0.00     PERCENT DISCREPANCY =          -0.00




         TIME SUMMARY AT END OF TIME STEP   35 IN STRESS PERIOD    1
                    SECONDS     MINUTES      HOURS       DAYS        YEARS
                    -----------------------------------------------------------
   TIME STEP LENGTH 1.72800E+05  2880.0      48.000      2.0000     5.47570E-03
 STRESS PERIOD TIME 6.04800E+06 1.00800E+05  1680.0      70.000     0.19165    
         TOTAL TIME 6.04800E+06 1.00800E+05  1680.0      70.000     0.19165    


end timestep


start timestep kper="1" kstp="36" mode="normal"

 UBDSV1 SAVING     FLOW-JA-FACE ON UNIT   1030 AT TIME STEP     36, STRESS PERIOD      1
 UBDSV1 SAVING  STORAGE-AQUEOUS ON UNIT   1030 AT TIME STEP     36, STRESS PERIOD      1
 UBDSV06 SAVING  SOURCE-SINK MIX IN MODEL SVA_TM_T         PACKAGE SVA_TM_T        CONNECTED TO MODEL SVA_TM_T         PACKAGE SSM              ON UNIT   1030 AT TIME STEP     36, STRESS PERIOD      1

 CONCENTRATION WILL BE SAVED ON UNIT 1031 AT END OF TIME STEP   36, STRESS PERIOD    1


  MASS BUDGET FOR ENTIRE MODEL AT END OF TIME STEP   36, STRESS PERIOD   1
  ---------------------------------------------------------------------------------------------------

     CUMULATIVE MASS      M       RATES FOR THIS TIME STEP      M/T          PACKAGE NAME    
     ------------------                 ------------------------                     ----------------

           IN:                                      IN:
           ---                                      ---
     STORAGE-AQUEOUS =       1.0899E-11       STORAGE-AQUEOUS =       1.3727E-20     MST                              
                 WEL =           0.0000                   WEL =           0.0000     SSM_WEL1                         
                 WEL =       3.6000E-02                   WEL =       5.0000E-04     SSM_WEL2                         

            TOTAL IN =       3.6000E-02              TOTAL IN =       5.0000E-04

          OUT:                                     OUT:
          ----                                     ----
     STORAGE-AQUEOUS =       3.0080E-02       STORAGE-AQUEOUS =       3.0064E-04     MST                              
                 WEL =       5.9199E-03                   WEL =       1.9936E-04     SSM_WEL1                         
                 WEL =           0.0000                   WEL =           0.0000     SSM_WEL2                         

           TOTAL OUT =       3.6000E-02             TOTAL OUT =       5.0000E-04

            IN - OUT =      -3.1083E-08              IN - OUT =      -1.1845E-10

 PERCENT DISCREPANCY =          -0.00     PERCENT DISCREPANCY =          -0.00




         TIME SUMMARY AT END OF TIME STEP   36 IN STRESS PERIOD    1
                    SECONDS     MINUTES      HOURS       DAYS        YEARS
                    -----------------------------------------------------------
   TIME STEP LENGTH 1.72800E+05  2880.0      48.000      2.0000     5.47570E-03
 STRESS PERIOD TIME 6.22080E+06 1.03680E+05  1728.0      72.000     0.19713    
         TOTAL TIME 6.22080E+06 1.03680E+05  1728.0      72.000     0.19713    


end timestep


start timestep kper="1" kstp="37" mode="normal"

 UBDSV1 SAVING     FLOW-JA-FACE ON UNIT   1030 AT TIME STEP     37, STRESS PERIOD      1
 UBDSV1 SAVING  STORAGE-AQUEOUS ON UNIT   1030 AT TIME STEP     37, STRESS PERIOD      1
 UBDSV06 SAVING  SOURCE-SINK MIX IN MODEL SVA_TM_T         PACKAGE SVA_TM_T        CONNECTED TO MODEL SVA_TM_T         PACKAGE SSM              ON UNIT   1030 AT TIME STEP     37, STRESS PERIOD      1

 CONCENTRATION WILL BE SAVED ON UNIT 1031 AT END OF TIME STEP   37, STRESS PERIOD    1


  MASS BUDGET FOR ENTIRE MODEL AT END OF TIME STEP   37, STRESS PERIOD   1
  ---------------------------------------------------------------------------------------------------

     CUMULATIVE MASS      M       RATES FOR THIS TIME STEP      M/T          PACKAGE NAME    
     ------------------                 ------------------------                     ----------------

           IN:                                      IN:
           ---                                      ---
     STORAGE-AQUEOUS =       1.0899E-11       STORAGE-AQUEOUS =       1.1064E-20     MST                              
                 WEL =           0.0000                   WEL =           0.0000     SSM_WEL1                         
                 WEL =       3.7000E-02                   WEL =       5.0000E-04     SSM_WEL2                         

            TOTAL IN =       3.7000E-02              TOTAL IN =       5.0000E-04

          OUT:                                     OUT:
          ----                                     ----
     STORAGE-AQUEOUS =       3.0671E-02       STORAGE-AQUEOUS =       2.9564E-04     MST                              
                 WEL =       6.3286E-03                   WEL =       2.0436E-04     SSM_WEL1                         
                 WEL =           0.0000                   WEL =           0.0000     SSM_WEL2                         

           TOTAL OUT =       3.7000E-02             TOTAL OUT =       5.0000E-04

            IN - OUT =      -3.1462E-08              IN - OUT =      -1.8929E-10

 PERCENT DISCREPANCY =          -0.00     PERCENT DISCREPANCY =          -0.00




         TIME SUMMARY AT END OF TIME STEP   37 IN STRESS PERIOD    1
                    SECONDS     MINUTES      HOURS       DAYS        YEARS
                    -----------------------------------------------------------
   TIME STEP LENGTH 1.72800E+05  2880.0      48.000      2.0000     5.47570E-03
 STRESS PERIOD TIME 6.39360E+06 1.06560E+05  1776.0      74.000     0.20260    
         TOTAL TIME 6.39360E+06 1.06560E+05  1776.0      74.000     0.20260    


end timestep


start timestep kper="1" kstp="38" mode="normal"

 UBDSV1 SAVING     FLOW-JA-FACE ON UNIT   1030 AT TIME STEP     38, STRESS PERIOD      1
 UBDSV1 SAVING  STORAGE-AQUEOUS ON UNIT   1030 AT TIME STEP     38, STRESS PERIOD      1
 UBDSV06 SAVING  SOURCE-SINK MIX IN MODEL SVA_TM_T         PACKAGE SVA_TM_T        CONNECTED TO MODEL SVA_TM_T         PACKAGE SSM              ON UNIT   1030 AT TIME STEP     38, STRESS PERIOD      1

 CONCENTRATION WILL BE SAVED ON UNIT 1031 AT END OF TIME STEP   38, STRESS PERIOD    1


  MASS BUDGET FOR ENTIRE MODEL AT END OF TIME STEP   38, STRESS PERIOD   1
  ---------------------------------------------------------------------------------------------------

     CUMULATIVE MASS      M       RATES FOR THIS TIME STEP      M/T          PACKAGE NAME    
     ------------------                 ------------------------                     ----------------

           IN:                                      IN:
           ---                                      ---
     STORAGE-AQUEOUS =       1.0899E-11       STORAGE-AQUEOUS =       6.3186E-21     MST                              
                 WEL =           0.0000                   WEL =           0.0000     SSM_WEL1                         
                 WEL =       3.8000E-02                   WEL =       5.0000E-04     SSM_WEL2                         

            TOTAL IN =       3.8000E-02              TOTAL IN =       5.0000E-04

          OUT:                                     OUT:
          ----                                     ----
     STORAGE-AQUEOUS =       3.1253E-02       STORAGE-AQUEOUS =       2.9080E-04     MST                              
                 WEL =       6.7470E-03                   WEL =       2.0920E-04     SSM_WEL1                         
                 WEL =           0.0000                   WEL =           0.0000     SSM_WEL2                         

           TOTAL OUT =       3.8000E-02             TOTAL OUT =       5.0000E-04

            IN - OUT =      -3.1715E-08              IN - OUT =      -1.2643E-10

 PERCENT DISCREPANCY =          -0.00     PERCENT DISCREPANCY =          -0.00




         TIME SUMMARY AT END OF TIME STEP   38 IN STRESS PERIOD    1
                    SECONDS     MINUTES      HOURS       DAYS        YEARS
                    -----------------------------------------------------------
   TIME STEP LENGTH 1.72800E+05  2880.0      48.000      2.0000     5.47570E-03
 STRESS PERIOD TIME 6.56640E+06 1.09440E+05  1824.0      76.000     0.20808    
         TOTAL TIME 6.56640E+06 1.09440E+05  1824.0      76.000     0.20808    


end timestep


start timestep kper="1" kstp="39" mode="normal"

 UBDSV1 SAVING     FLOW-JA-FACE ON UNIT   1030 AT TIME STEP     39, STRESS PERIOD      1
 UBDSV1 SAVING  STORAGE-AQUEOUS ON UNIT   1030 AT TIME STEP     39, STRESS PERIOD      1
 UBDSV06 SAVING  SOURCE-SINK MIX IN MODEL SVA_TM_T         PACKAGE SVA_TM_T        CONNECTED TO MODEL SVA_TM_T         PACKAGE SSM              ON UNIT   1030 AT TIME STEP     39, STRESS PERIOD      1

 CONCENTRATION WILL BE SAVED ON UNIT 1031 AT END OF TIME STEP   39, STRESS PERIOD    1


  MASS BUDGET FOR ENTIRE MODEL AT END OF TIME STEP   39, STRESS PERIOD   1
  ---------------------------------------------------------------------------------------------------

     CUMULATIVE MASS      M       RATES FOR THIS TIME STEP      M/T          PACKAGE NAME    
     ------------------                 ------------------------                     ----------------

           IN:                                      IN:
           ---                                      ---
     STORAGE-AQUEOUS =       1.0899E-11       STORAGE-AQUEOUS =       5.6133E-21     MST                              
                 WEL =           0.0000                   WEL =           0.0000     SSM_WEL1                         
                 WEL =       3.9000E-02                   WEL =       5.0000E-04     SSM_WEL2                         

            TOTAL IN =       3.9000E-02              TOTAL IN =       5.0000E-04

          OUT:                                     OUT:
          ----                                     ----
     STORAGE-AQUEOUS =       3.1825E-02       STORAGE-AQUEOUS =       2.8611E-04     MST                              
                 WEL =       7.1748E-03                   WEL =       2.1389E-04     SSM_WEL1                         
                 WEL =           0.0000                   WEL =           0.0000     SSM_WEL2                         

           TOTAL OUT =       3.9000E-02             TOTAL OUT =       5.0000E-04

            IN - OUT =      -3.2114E-08              IN - OUT =      -1.9973E-10

 PERCENT DISCREPANCY =          -0.00     PERCENT DISCREPANCY =          -0.00




         TIME SUMMARY AT END OF TIME STEP   39 IN STRESS PERIOD    1
                    SECONDS     MINUTES      HOURS       DAYS        YEARS
                    -----------------------------------------------------------
   TIME STEP LENGTH 1.72800E+05  2880.0      48.000      2.0000     5.47570E-03
 STRESS PERIOD TIME 6.73920E+06 1.12320E+05  1872.0      78.000     0.21355    
         TOTAL TIME 6.73920E+06 1.12320E+05  1872.0      78.000     0.21355    


end timestep


start timestep kper="1" kstp="40" mode="normal"

 UBDSV1 SAVING     FLOW-JA-FACE ON UNIT   1030 AT TIME STEP     40, STRESS PERIOD      1
 UBDSV1 SAVING  STORAGE-AQUEOUS ON UNIT   1030 AT TIME STEP     40, STRESS PERIOD      1
 UBDSV06 SAVING  SOURCE-SINK MIX IN MODEL SVA_TM_T         PACKAGE SVA_TM_T        CONNECTED TO MODEL SVA_TM_T         PACKAGE SSM              ON UNIT   1030 AT TIME STEP     40, STRESS PERIOD      1

 CONCENTRATION WILL BE SAVED ON UNIT 1031 AT END OF TIME STEP   40, STRESS PERIOD    1


  MASS BUDGET FOR ENTIRE MODEL AT END OF TIME STEP   40, STRESS PERIOD   1
  ---------------------------------------------------------------------------------------------------

     CUMULATIVE MASS      M       RATES FOR THIS TIME STEP      M/T          PACKAGE NAME    
     ------------------                 ------------------------                     ----------------

           IN:                                      IN:
           ---                                      ---
     STORAGE-AQUEOUS =       1.0899E-11       STORAGE-AQUEOUS =       4.3314E-21     MST                              
                 WEL =           0.0000                   WEL =           0.0000     SSM_WEL1                         
                 WEL =       4.0000E-02                   WEL =       5.0000E-04     SSM_WEL2                         

            TOTAL IN =       4.0000E-02              TOTAL IN =       5.0000E-04

          OUT:                                     OUT:
          ----                                     ----
     STORAGE-AQUEOUS =       3.2388E-02       STORAGE-AQUEOUS =       2.8159E-04     MST                              
                 WEL =       7.6116E-03                   WEL =       2.1841E-04     SSM_WEL1                         
                 WEL =           0.0000                   WEL =           0.0000     SSM_WEL2                         

           TOTAL OUT =       4.0000E-02             TOTAL OUT =       5.0000E-04

            IN - OUT =      -3.2669E-08              IN - OUT =      -2.7743E-10

 PERCENT DISCREPANCY =          -0.00     PERCENT DISCREPANCY =          -0.00




         TIME SUMMARY AT END OF TIME STEP   40 IN STRESS PERIOD    1
                    SECONDS     MINUTES      HOURS       DAYS        YEARS
                    -----------------------------------------------------------
   TIME STEP LENGTH 1.72800E+05  2880.0      48.000      2.0000     5.47570E-03
 STRESS PERIOD TIME 6.91200E+06 1.15200E+05  1920.0      80.000     0.21903    
         TOTAL TIME 6.91200E+06 1.15200E+05  1920.0      80.000     0.21903    


end timestep


start timestep kper="1" kstp="41" mode="normal"

 UBDSV1 SAVING     FLOW-JA-FACE ON UNIT   1030 AT TIME STEP     41, STRESS PERIOD      1
 UBDSV1 SAVING  STORAGE-AQUEOUS ON UNIT   1030 AT TIME STEP     41, STRESS PERIOD      1
 UBDSV06 SAVING  SOURCE-SINK MIX IN MODEL SVA_TM_T         PACKAGE SVA_TM_T        CONNECTED TO MODEL SVA_TM_T         PACKAGE SSM              ON UNIT   1030 AT TIME STEP     41, STRESS PERIOD      1

 CONCENTRATION WILL BE SAVED ON UNIT 1031 AT END OF TIME STEP   41, STRESS PERIOD    1


  MASS BUDGET FOR ENTIRE MODEL AT END OF TIME STEP   41, STRESS PERIOD   1
  ---------------------------------------------------------------------------------------------------

     CUMULATIVE MASS      M       RATES FOR THIS TIME STEP      M/T          PACKAGE NAME    
     ------------------                 ------------------------                     ----------------

           IN:                                      IN:
           ---                                      ---
     STORAGE-AQUEOUS =       1.0899E-11       STORAGE-AQUEOUS =       2.7274E-21     MST                              
                 WEL =           0.0000                   WEL =           0.0000     SSM_WEL1                         
                 WEL =       4.1000E-02                   WEL =       5.0000E-04     SSM_WEL2                         

            TOTAL IN =       4.1000E-02              TOTAL IN =       5.0000E-04

          OUT:                                     OUT:
          ----                                     ----
     STORAGE-AQUEOUS =       3.2943E-02       STORAGE-AQUEOUS =       2.7723E-04     MST                              
                 WEL =       8.0571E-03                   WEL =       2.2277E-04     SSM_WEL1                         
                 WEL =           0.0000                   WEL =           0.0000     SSM_WEL2                         

           TOTAL OUT =       4.1000E-02             TOTAL OUT =       5.0000E-04

            IN - OUT =      -3.3164E-08              IN - OUT =      -2.4774E-10

 PERCENT DISCREPANCY =          -0.00     PERCENT DISCREPANCY =          -0.00




         TIME SUMMARY AT END OF TIME STEP   41 IN STRESS PERIOD    1
                    SECONDS     MINUTES      HOURS       DAYS        YEARS
                    -----------------------------------------------------------
   TIME STEP LENGTH 1.72800E+05  2880.0      48.000      2.0000     5.47570E-03
 STRESS PERIOD TIME 7.08480E+06 1.18080E+05  1968.0      82.000     0.22450    
         TOTAL TIME 7.08480E+06 1.18080E+05  1968.0      82.000     0.22450    


end timestep


start timestep kper="1" kstp="42" mode="normal"

 UBDSV1 SAVING     FLOW-JA-FACE ON UNIT   1030 AT TIME STEP     42, STRESS PERIOD      1
 UBDSV1 SAVING  STORAGE-AQUEOUS ON UNIT   1030 AT TIME STEP     42, STRESS PERIOD      1
 UBDSV06 SAVING  SOURCE-SINK MIX IN MODEL SVA_TM_T         PACKAGE SVA_TM_T        CONNECTED TO MODEL SVA_TM_T         PACKAGE SSM              ON UNIT   1030 AT TIME STEP     42, STRESS PERIOD      1

 CONCENTRATION WILL BE SAVED ON UNIT 1031 AT END OF TIME STEP   42, STRESS PERIOD    1


  MASS BUDGET FOR ENTIRE MODEL AT END OF TIME STEP   42, STRESS PERIOD   1
  ---------------------------------------------------------------------------------------------------

     CUMULATIVE MASS      M       RATES FOR THIS TIME STEP      M/T          PACKAGE NAME    
     ------------------                 ------------------------                     ----------------

           IN:                                      IN:
           ---                                      ---
     STORAGE-AQUEOUS =       1.0899E-11       STORAGE-AQUEOUS =       1.9524E-21     MST                              
                 WEL =           0.0000                   WEL =           0.0000     SSM_WEL1                         
                 WEL =       4.2000E-02                   WEL =       5.0000E-04     SSM_WEL2                         

            TOTAL IN =       4.2000E-02              TOTAL IN =       5.0000E-04

          OUT:                                     OUT:
          ----                                     ----
     STORAGE-AQUEOUS =       3.3489E-02       STORAGE-AQUEOUS =       2.7298E-04     MST                              
                 WEL =       8.5112E-03                   WEL =       2.2702E-04     SSM_WEL1                         
                 WEL =           0.0000                   WEL =           0.0000     SSM_WEL2                         

           TOTAL OUT =       4.2000E-02             TOTAL OUT =       5.0000E-04

            IN - OUT =      -3.3811E-08              IN - OUT =      -3.2320E-10

 PERCENT DISCREPANCY =          -0.00     PERCENT DISCREPANCY =          -0.00




         TIME SUMMARY AT END OF TIME STEP   42 IN STRESS PERIOD    1
                    SECONDS     MINUTES      HOURS       DAYS        YEARS
                    -----------------------------------------------------------
   TIME STEP LENGTH 1.72800E+05  2880.0      48.000      2.0000     5.47570E-03
 STRESS PERIOD TIME 7.25760E+06 1.20960E+05  2016.0      84.000     0.22998    
         TOTAL TIME 7.25760E+06 1.20960E+05  2016.0      84.000     0.22998    


end timestep


start timestep kper="1" kstp="43" mode="normal"

 UBDSV1 SAVING     FLOW-JA-FACE ON UNIT   1030 AT TIME STEP     43, STRESS PERIOD      1
 UBDSV1 SAVING  STORAGE-AQUEOUS ON UNIT   1030 AT TIME STEP     43, STRESS PERIOD      1
 UBDSV06 SAVING  SOURCE-SINK MIX IN MODEL SVA_TM_T         PACKAGE SVA_TM_T        CONNECTED TO MODEL SVA_TM_T         PACKAGE SSM              ON UNIT   1030 AT TIME STEP     43, STRESS PERIOD      1

 CONCENTRATION WILL BE SAVED ON UNIT 1031 AT END OF TIME STEP   43, STRESS PERIOD    1


  MASS BUDGET FOR ENTIRE MODEL AT END OF TIME STEP   43, STRESS PERIOD   1
  ---------------------------------------------------------------------------------------------------

     CUMULATIVE MASS      M       RATES FOR THIS TIME STEP      M/T          PACKAGE NAME    
     ------------------                 ------------------------                     ----------------

           IN:                                      IN:
           ---                                      ---
     STORAGE-AQUEOUS =       1.0899E-11       STORAGE-AQUEOUS =       1.3469E-21     MST                              
                 WEL =           0.0000                   WEL =           0.0000     SSM_WEL1                         
                 WEL =       4.3000E-02                   WEL =       5.0000E-04     SSM_WEL2                         

            TOTAL IN =       4.3000E-02              TOTAL IN =       5.0000E-04

          OUT:                                     OUT:
          ----                                     ----
     STORAGE-AQUEOUS =       3.4026E-02       STORAGE-AQUEOUS =       2.6882E-04     MST                              
                 WEL =       8.9735E-03                   WEL =       2.3118E-04     SSM_WEL1                         
                 WEL =           0.0000                   WEL =           0.0000     SSM_WEL2                         

           TOTAL OUT =       4.3000E-02             TOTAL OUT =       5.0000E-04

            IN - OUT =      -3.6604E-08              IN - OUT =      -1.3967E-09

 PERCENT DISCREPANCY =          -0.00     PERCENT DISCREPANCY =          -0.00




         TIME SUMMARY AT END OF TIME STEP   43 IN STRESS PERIOD    1
                    SECONDS     MINUTES      HOURS       DAYS        YEARS
                    -----------------------------------------------------------
   TIME STEP LENGTH 1.72800E+05  2880.0      48.000      2.0000     5.47570E-03
 STRESS PERIOD TIME 7.43040E+06 1.23840E+05  2064.0      86.000     0.23546    
         TOTAL TIME 7.43040E+06 1.23840E+05  2064.0      86.000     0.23546    


end timestep


start timestep kper="1" kstp="44" mode="normal"

 UBDSV1 SAVING     FLOW-JA-FACE ON UNIT   1030 AT TIME STEP     44, STRESS PERIOD      1
 UBDSV1 SAVING  STORAGE-AQUEOUS ON UNIT   1030 AT TIME STEP     44, STRESS PERIOD      1
 UBDSV06 SAVING  SOURCE-SINK MIX IN MODEL SVA_TM_T         PACKAGE SVA_TM_T        CONNECTED TO MODEL SVA_TM_T         PACKAGE SSM              ON UNIT   1030 AT TIME STEP     44, STRESS PERIOD      1

 CONCENTRATION WILL BE SAVED ON UNIT 1031 AT END OF TIME STEP   44, STRESS PERIOD    1


  MASS BUDGET FOR ENTIRE MODEL AT END OF TIME STEP   44, STRESS PERIOD   1
  ---------------------------------------------------------------------------------------------------

     CUMULATIVE MASS      M       RATES FOR THIS TIME STEP      M/T          PACKAGE NAME    
     ------------------                 ------------------------                     ----------------

           IN:                                      IN:
           ---                                      ---
     STORAGE-AQUEOUS =       1.0899E-11       STORAGE-AQUEOUS =       8.1654E-22     MST                              
                 WEL =           0.0000                   WEL =           0.0000     SSM_WEL1                         
                 WEL =       4.4000E-02                   WEL =       5.0000E-04     SSM_WEL2                         

            TOTAL IN =       4.4000E-02              TOTAL IN =       5.0000E-04

          OUT:                                     OUT:
          ----                                     ----
     STORAGE-AQUEOUS =       3.4556E-02       STORAGE-AQUEOUS =       2.6473E-04     MST                              
                 WEL =       9.4441E-03                   WEL =       2.3527E-04     SSM_WEL1                         
                 WEL =           0.0000                   WEL =           0.0000     SSM_WEL2                         

           TOTAL OUT =       4.4000E-02             TOTAL OUT =       5.0000E-04

            IN - OUT =      -4.5732E-08              IN - OUT =      -4.5639E-09

 PERCENT DISCREPANCY =          -0.00     PERCENT DISCREPANCY =          -0.00




         TIME SUMMARY AT END OF TIME STEP   44 IN STRESS PERIOD    1
                    SECONDS     MINUTES      HOURS       DAYS        YEARS
                    -----------------------------------------------------------
   TIME STEP LENGTH 1.72800E+05  2880.0      48.000      2.0000     5.47570E-03
 STRESS PERIOD TIME 7.60320E+06 1.26720E+05  2112.0      88.000     0.24093    
         TOTAL TIME 7.60320E+06 1.26720E+05  2112.0      88.000     0.24093    


end timestep


start timestep kper="1" kstp="45" mode="normal"

 UBDSV1 SAVING     FLOW-JA-FACE ON UNIT   1030 AT TIME STEP     45, STRESS PERIOD      1
 UBDSV1 SAVING  STORAGE-AQUEOUS ON UNIT   1030 AT TIME STEP     45, STRESS PERIOD      1
 UBDSV06 SAVING  SOURCE-SINK MIX IN MODEL SVA_TM_T         PACKAGE SVA_TM_T        CONNECTED TO MODEL SVA_TM_T         PACKAGE SSM              ON UNIT   1030 AT TIME STEP     45, STRESS PERIOD      1

 CONCENTRATION WILL BE SAVED ON UNIT 1031 AT END OF TIME STEP   45, STRESS PERIOD    1


  MASS BUDGET FOR ENTIRE MODEL AT END OF TIME STEP   45, STRESS PERIOD   1
  ---------------------------------------------------------------------------------------------------

     CUMULATIVE MASS      M       RATES FOR THIS TIME STEP      M/T          PACKAGE NAME    
     ------------------                 ------------------------                     ----------------

           IN:                                      IN:
           ---                                      ---
     STORAGE-AQUEOUS =       1.0899E-11       STORAGE-AQUEOUS =       6.8803E-22     MST                              
                 WEL =           0.0000                   WEL =           0.0000     SSM_WEL1                         
                 WEL =       4.5000E-02                   WEL =       5.0000E-04     SSM_WEL2                         

            TOTAL IN =       4.5000E-02              TOTAL IN =       5.0000E-04

          OUT:                                     OUT:
          ----                                     ----
     STORAGE-AQUEOUS =       3.5077E-02       STORAGE-AQUEOUS =       2.6073E-04     MST                              
                 WEL =       9.9226E-03                   WEL =       2.3928E-04     SSM_WEL1                         
                 WEL =           0.0000                   WEL =           0.0000     SSM_WEL2                         

           TOTAL OUT =       4.5000E-02             TOTAL OUT =       5.0000E-04

            IN - OUT =      -5.4369E-08              IN - OUT =      -4.3187E-09

 PERCENT DISCREPANCY =          -0.00     PERCENT DISCREPANCY =          -0.00




         TIME SUMMARY AT END OF TIME STEP   45 IN STRESS PERIOD    1
                    SECONDS     MINUTES      HOURS       DAYS        YEARS
                    -----------------------------------------------------------
   TIME STEP LENGTH 1.72800E+05  2880.0      48.000      2.0000     5.47570E-03
 STRESS PERIOD TIME 7.77600E+06 1.29600E+05  2160.0      90.000     0.24641    
         TOTAL TIME 7.77600E+06 1.29600E+05  2160.0      90.000     0.24641    


end timestep


start timestep kper="1" kstp="46" mode="normal"

 UBDSV1 SAVING     FLOW-JA-FACE ON UNIT   1030 AT TIME STEP     46, STRESS PERIOD      1
 UBDSV1 SAVING  STORAGE-AQUEOUS ON UNIT   1030 AT TIME STEP     46, STRESS PERIOD      1
 UBDSV06 SAVING  SOURCE-SINK MIX IN MODEL SVA_TM_T         PACKAGE SVA_TM_T        CONNECTED TO MODEL SVA_TM_T         PACKAGE SSM              ON UNIT   1030 AT TIME STEP     46, STRESS PERIOD      1

 CONCENTRATION WILL BE SAVED ON UNIT 1031 AT END OF TIME STEP   46, STRESS PERIOD    1


  MASS BUDGET FOR ENTIRE MODEL AT END OF TIME STEP   46, STRESS PERIOD   1
  ---------------------------------------------------------------------------------------------------

     CUMULATIVE MASS      M       RATES FOR THIS TIME STEP      M/T          PACKAGE NAME    
     ------------------                 ------------------------                     ----------------

           IN:                                      IN:
           ---                                      ---
     STORAGE-AQUEOUS =       1.0899E-11       STORAGE-AQUEOUS =       4.9309E-22     MST                              
                 WEL =           0.0000                   WEL =           0.0000     SSM_WEL1                         
                 WEL =       4.6000E-02                   WEL =       5.0000E-04     SSM_WEL2                         

            TOTAL IN =       4.6000E-02              TOTAL IN =       5.0000E-04

          OUT:                                     OUT:
          ----                                     ----
     STORAGE-AQUEOUS =       3.5591E-02       STORAGE-AQUEOUS =       2.5682E-04     MST                              
                 WEL =       1.0409E-02                   WEL =       2.4319E-04     SSM_WEL1                         
                 WEL =           0.0000                   WEL =           0.0000     SSM_WEL2                         

           TOTAL OUT =       4.6000E-02             TOTAL OUT =       5.0000E-04

            IN - OUT =      -5.9051E-08              IN - OUT =      -2.3408E-09

 PERCENT DISCREPANCY =          -0.00     PERCENT DISCREPANCY =          -0.00




         TIME SUMMARY AT END OF TIME STEP   46 IN STRESS PERIOD    1
                    SECONDS     MINUTES      HOURS       DAYS        YEARS
                    -----------------------------------------------------------
   TIME STEP LENGTH 1.72800E+05  2880.0      48.000      2.0000     5.47570E-03
 STRESS PERIOD TIME 7.94880E+06 1.32480E+05  2208.0      92.000     0.25188    
         TOTAL TIME 7.94880E+06 1.32480E+05  2208.0      92.000     0.25188    


end timestep


start timestep kper="1" kstp="47" mode="normal"

 UBDSV1 SAVING     FLOW-JA-FACE ON UNIT   1030 AT TIME STEP     47, STRESS PERIOD      1
 UBDSV1 SAVING  STORAGE-AQUEOUS ON UNIT   1030 AT TIME STEP     47, STRESS PERIOD      1
 UBDSV06 SAVING  SOURCE-SINK MIX IN MODEL SVA_TM_T         PACKAGE SVA_TM_T        CONNECTED TO MODEL SVA_TM_T         PACKAGE SSM              ON UNIT   1030 AT TIME STEP     47, STRESS PERIOD      1

 CONCENTRATION WILL BE SAVED ON UNIT 1031 AT END OF TIME STEP   47, STRESS PERIOD    1


  MASS BUDGET FOR ENTIRE MODEL AT END OF TIME STEP   47, STRESS PERIOD   1
  ---------------------------------------------------------------------------------------------------

     CUMULATIVE MASS      M       RATES FOR THIS TIME STEP      M/T          PACKAGE NAME    
     ------------------                 ------------------------                     ----------------

           IN:                                      IN:
           ---                                      ---
     STORAGE-AQUEOUS =       1.0899E-11       STORAGE-AQUEOUS =       3.6420E-22     MST                              
                 WEL =           0.0000                   WEL =           0.0000     SSM_WEL1                         
                 WEL =       4.7000E-02                   WEL =       5.0000E-04     SSM_WEL2                         

            TOTAL IN =       4.7000E-02              TOTAL IN =       5.0000E-04

          OUT:                                     OUT:
          ----                                     ----
     STORAGE-AQUEOUS =       3.6097E-02       STORAGE-AQUEOUS =       2.5300E-04     MST                              
                 WEL =       1.0903E-02                   WEL =       2.4701E-04     SSM_WEL1                         
                 WEL =           0.0000                   WEL =           0.0000     SSM_WEL2                         

           TOTAL OUT =       4.7000E-02             TOTAL OUT =       5.0000E-04

            IN - OUT =      -6.6587E-08              IN - OUT =      -3.7682E-09

 PERCENT DISCREPANCY =          -0.00     PERCENT DISCREPANCY =          -0.00




         TIME SUMMARY AT END OF TIME STEP   47 IN STRESS PERIOD    1
                    SECONDS     MINUTES      HOURS       DAYS        YEARS
                    -----------------------------------------------------------
   TIME STEP LENGTH 1.72800E+05  2880.0      48.000      2.0000     5.47570E-03
 STRESS PERIOD TIME 8.12160E+06 1.35360E+05  2256.0      94.000     0.25736    
         TOTAL TIME 8.12160E+06 1.35360E+05  2256.0      94.000     0.25736    


end timestep


start timestep kper="1" kstp="48" mode="normal"

 UBDSV1 SAVING     FLOW-JA-FACE ON UNIT   1030 AT TIME STEP     48, STRESS PERIOD      1
 UBDSV1 SAVING  STORAGE-AQUEOUS ON UNIT   1030 AT TIME STEP     48, STRESS PERIOD      1
 UBDSV06 SAVING  SOURCE-SINK MIX IN MODEL SVA_TM_T         PACKAGE SVA_TM_T        CONNECTED TO MODEL SVA_TM_T         PACKAGE SSM              ON UNIT   1030 AT TIME STEP     48, STRESS PERIOD      1

 CONCENTRATION WILL BE SAVED ON UNIT 1031 AT END OF TIME STEP   48, STRESS PERIOD    1


  MASS BUDGET FOR ENTIRE MODEL AT END OF TIME STEP   48, STRESS PERIOD   1
  ---------------------------------------------------------------------------------------------------

     CUMULATIVE MASS      M       RATES FOR THIS TIME STEP      M/T          PACKAGE NAME    
     ------------------                 ------------------------                     ----------------

           IN:                                      IN:
           ---                                      ---
     STORAGE-AQUEOUS =       1.0899E-11       STORAGE-AQUEOUS =       3.0598E-22     MST                              
                 WEL =           0.0000                   WEL =           0.0000     SSM_WEL1                         
                 WEL =       4.8000E-02                   WEL =       5.0000E-04     SSM_WEL2                         

            TOTAL IN =       4.8000E-02              TOTAL IN =       5.0000E-04

          OUT:                                     OUT:
          ----                                     ----
     STORAGE-AQUEOUS =       3.6596E-02       STORAGE-AQUEOUS =       2.4926E-04     MST                              
                 WEL =       1.1404E-02                   WEL =       2.5074E-04     SSM_WEL1                         
                 WEL =           0.0000                   WEL =           0.0000     SSM_WEL2                         

           TOTAL OUT =       4.8000E-02             TOTAL OUT =       5.0000E-04

            IN - OUT =      -7.0343E-08              IN - OUT =      -1.8778E-09

 PERCENT DISCREPANCY =          -0.00     PERCENT DISCREPANCY =          -0.00




         TIME SUMMARY AT END OF TIME STEP   48 IN STRESS PERIOD    1
                    SECONDS     MINUTES      HOURS       DAYS        YEARS
                    -----------------------------------------------------------
   TIME STEP LENGTH 1.72800E+05  2880.0      48.000      2.0000     5.47570E-03
 STRESS PERIOD TIME 8.29440E+06 1.38240E+05  2304.0      96.000     0.26283    
         TOTAL TIME 8.29440E+06 1.38240E+05  2304.0      96.000     0.26283    


end timestep


start timestep kper="1" kstp="49" mode="normal"

 UBDSV1 SAVING     FLOW-JA-FACE ON UNIT   1030 AT TIME STEP     49, STRESS PERIOD      1
 UBDSV1 SAVING  STORAGE-AQUEOUS ON UNIT   1030 AT TIME STEP     49, STRESS PERIOD      1
 UBDSV06 SAVING  SOURCE-SINK MIX IN MODEL SVA_TM_T         PACKAGE SVA_TM_T        CONNECTED TO MODEL SVA_TM_T         PACKAGE SSM              ON UNIT   1030 AT TIME STEP     49, STRESS PERIOD      1

 CONCENTRATION WILL BE SAVED ON UNIT 1031 AT END OF TIME STEP   49, STRESS PERIOD    1


  MASS BUDGET FOR ENTIRE MODEL AT END OF TIME STEP   49, STRESS PERIOD   1
  ---------------------------------------------------------------------------------------------------

     CUMULATIVE MASS      M       RATES FOR THIS TIME STEP      M/T          PACKAGE NAME    
     ------------------                 ------------------------                     ----------------

           IN:                                      IN:
           ---                                      ---
     STORAGE-AQUEOUS =       1.0899E-11       STORAGE-AQUEOUS =       2.4547E-22     MST                              
                 WEL =           0.0000                   WEL =           0.0000     SSM_WEL1                         
                 WEL =       4.9000E-02                   WEL =       5.0000E-04     SSM_WEL2                         

            TOTAL IN =       4.9000E-02              TOTAL IN =       5.0000E-04

          OUT:                                     OUT:
          ----                                     ----
     STORAGE-AQUEOUS =       3.7087E-02       STORAGE-AQUEOUS =       2.4562E-04     MST                              
                 WEL =       1.1913E-02                   WEL =       2.5438E-04     SSM_WEL1                         
                 WEL =           0.0000                   WEL =           0.0000     SSM_WEL2                         

           TOTAL OUT =       4.9000E-02             TOTAL OUT =       5.0000E-04

            IN - OUT =      -7.2838E-08              IN - OUT =      -1.2476E-09

 PERCENT DISCREPANCY =          -0.00     PERCENT DISCREPANCY =          -0.00




         TIME SUMMARY AT END OF TIME STEP   49 IN STRESS PERIOD    1
                    SECONDS     MINUTES      HOURS       DAYS        YEARS
                    -----------------------------------------------------------
   TIME STEP LENGTH 1.72800E+05  2880.0      48.000      2.0000     5.47570E-03
 STRESS PERIOD TIME 8.46720E+06 1.41120E+05  2352.0      98.000     0.26831    
         TOTAL TIME 8.46720E+06 1.41120E+05  2352.0      98.000     0.26831    


end timestep


start timestep kper="1" kstp="50" mode="normal"

 UBDSV1 SAVING     FLOW-JA-FACE ON UNIT   1030 AT TIME STEP     50, STRESS PERIOD      1
 UBDSV1 SAVING  STORAGE-AQUEOUS ON UNIT   1030 AT TIME STEP     50, STRESS PERIOD      1
 UBDSV06 SAVING  SOURCE-SINK MIX IN MODEL SVA_TM_T         PACKAGE SVA_TM_T        CONNECTED TO MODEL SVA_TM_T         PACKAGE SSM              ON UNIT   1030 AT TIME STEP     50, STRESS PERIOD      1

 CONCENTRATION WILL BE SAVED ON UNIT 1031 AT END OF TIME STEP   50, STRESS PERIOD    1


  MASS BUDGET FOR ENTIRE MODEL AT END OF TIME STEP   50, STRESS PERIOD   1
  ---------------------------------------------------------------------------------------------------

     CUMULATIVE MASS      M       RATES FOR THIS TIME STEP      M/T          PACKAGE NAME    
     ------------------                 ------------------------                     ----------------

           IN:                                      IN:
           ---                                      ---
     STORAGE-AQUEOUS =       1.0899E-11       STORAGE-AQUEOUS =       1.8573E-22     MST                              
                 WEL =           0.0000                   WEL =           0.0000     SSM_WEL1                         
                 WEL =       5.0000E-02                   WEL =       5.0000E-04     SSM_WEL2                         

            TOTAL IN =       5.0000E-02              TOTAL IN =       5.0000E-04

          OUT:                                     OUT:
          ----                                     ----
     STORAGE-AQUEOUS =       3.7571E-02       STORAGE-AQUEOUS =       2.4206E-04     MST                              
                 WEL =       1.2429E-02                   WEL =       2.5794E-04     SSM_WEL1                         
                 WEL =           0.0000                   WEL =           0.0000     SSM_WEL2                         

           TOTAL OUT =       5.0000E-02             TOTAL OUT =       5.0000E-04

            IN - OUT =      -8.0237E-08              IN - OUT =      -3.6992E-09

 PERCENT DISCREPANCY =          -0.00     PERCENT DISCREPANCY =          -0.00




         TIME SUMMARY AT END OF TIME STEP   50 IN STRESS PERIOD    1
                    SECONDS     MINUTES      HOURS       DAYS        YEARS
                    -----------------------------------------------------------
   TIME STEP LENGTH 1.72800E+05  2880.0      48.000      2.0000     5.47570E-03
 STRESS PERIOD TIME 8.64000E+06 1.44000E+05  2400.0      100.00     0.27379    
         TOTAL TIME 8.64000E+06 1.44000E+05  2400.0      100.00     0.27379    


end timestep


start timestep kper="1" kstp="51" mode="normal"

 UBDSV1 SAVING     FLOW-JA-FACE ON UNIT   1030 AT TIME STEP     51, STRESS PERIOD      1
 UBDSV1 SAVING  STORAGE-AQUEOUS ON UNIT   1030 AT TIME STEP     51, STRESS PERIOD      1
 UBDSV06 SAVING  SOURCE-SINK MIX IN MODEL SVA_TM_T         PACKAGE SVA_TM_T        CONNECTED TO MODEL SVA_TM_T         PACKAGE SSM              ON UNIT   1030 AT TIME STEP     51, STRESS PERIOD      1

 CONCENTRATION WILL BE SAVED ON UNIT 1031 AT END OF TIME STEP   51, STRESS PERIOD    1


  MASS BUDGET FOR ENTIRE MODEL AT END OF TIME STEP   51, STRESS PERIOD   1
  ---------------------------------------------------------------------------------------------------

     CUMULATIVE MASS      M       RATES FOR THIS TIME STEP      M/T          PACKAGE NAME    
     ------------------                 ------------------------                     ----------------

           IN:                                      IN:
           ---                                      ---
     STORAGE-AQUEOUS =       1.0899E-11       STORAGE-AQUEOUS =       1.4982E-22     MST                              
                 WEL =           0.0000                   WEL =           0.0000     SSM_WEL1                         
                 WEL =       5.1000E-02                   WEL =       5.0000E-04     SSM_WEL2                         

            TOTAL IN =       5.1000E-02              TOTAL IN =       5.0000E-04

          OUT:                                     OUT:
          ----                                     ----
     STORAGE-AQUEOUS =       3.8048E-02       STORAGE-AQUEOUS =       2.3857E-04     MST                              
                 WEL =       1.2952E-02                   WEL =       2.6143E-04     SSM_WEL1                         
                 WEL =           0.0000                   WEL =           0.0000     SSM_WEL2                         

           TOTAL OUT =       5.1000E-02             TOTAL OUT =       5.0000E-04

            IN - OUT =      -8.7379E-08              IN - OUT =      -3.5714E-09

 PERCENT DISCREPANCY =          -0.00     PERCENT DISCREPANCY =          -0.00




         TIME SUMMARY AT END OF TIME STEP   51 IN STRESS PERIOD    1
                    SECONDS     MINUTES      HOURS       DAYS        YEARS
                    -----------------------------------------------------------
   TIME STEP LENGTH 1.72800E+05  2880.0      48.000      2.0000     5.47570E-03
 STRESS PERIOD TIME 8.81280E+06 1.46880E+05  2448.0      102.00     0.27926    
         TOTAL TIME 8.81280E+06 1.46880E+05  2448.0      102.00     0.27926    


end timestep


start timestep kper="1" kstp="52" mode="normal"

 UBDSV1 SAVING     FLOW-JA-FACE ON UNIT   1030 AT TIME STEP     52, STRESS PERIOD      1
 UBDSV1 SAVING  STORAGE-AQUEOUS ON UNIT   1030 AT TIME STEP     52, STRESS PERIOD      1
 UBDSV06 SAVING  SOURCE-SINK MIX IN MODEL SVA_TM_T         PACKAGE SVA_TM_T        CONNECTED TO MODEL SVA_TM_T         PACKAGE SSM              ON UNIT   1030 AT TIME STEP     52, STRESS PERIOD      1

 CONCENTRATION WILL BE SAVED ON UNIT 1031 AT END OF TIME STEP   52, STRESS PERIOD    1


  MASS BUDGET FOR ENTIRE MODEL AT END OF TIME STEP   52, STRESS PERIOD   1
  ---------------------------------------------------------------------------------------------------

     CUMULATIVE MASS      M       RATES FOR THIS TIME STEP      M/T          PACKAGE NAME    
     ------------------                 ------------------------                     ----------------

           IN:                                      IN:
           ---                                      ---
     STORAGE-AQUEOUS =       1.0899E-11       STORAGE-AQUEOUS =       1.2552E-22     MST                              
                 WEL =           0.0000                   WEL =           0.0000     SSM_WEL1                         
                 WEL =       5.2000E-02                   WEL =       5.0000E-04     SSM_WEL2                         

            TOTAL IN =       5.2000E-02              TOTAL IN =       5.0000E-04

          OUT:                                     OUT:
          ----                                     ----
     STORAGE-AQUEOUS =       3.8518E-02       STORAGE-AQUEOUS =       2.3517E-04     MST                              
                 WEL =       1.3482E-02                   WEL =       2.6484E-04     SSM_WEL1                         
                 WEL =           0.0000                   WEL =           0.0000     SSM_WEL2                         

           TOTAL OUT =       5.2000E-02             TOTAL OUT =       5.0000E-04

            IN - OUT =      -9.4194E-08              IN - OUT =      -3.4073E-09

 PERCENT DISCREPANCY =          -0.00     PERCENT DISCREPANCY =          -0.00




         TIME SUMMARY AT END OF TIME STEP   52 IN STRESS PERIOD    1
                    SECONDS     MINUTES      HOURS       DAYS        YEARS
                    -----------------------------------------------------------
   TIME STEP LENGTH 1.72800E+05  2880.0      48.000      2.0000     5.47570E-03
 STRESS PERIOD TIME 8.98560E+06 1.49760E+05  2496.0      104.00     0.28474    
         TOTAL TIME 8.98560E+06 1.49760E+05  2496.0      104.00     0.28474    


end timestep


start timestep kper="1" kstp="53" mode="normal"

 UBDSV1 SAVING     FLOW-JA-FACE ON UNIT   1030 AT TIME STEP     53, STRESS PERIOD      1
 UBDSV1 SAVING  STORAGE-AQUEOUS ON UNIT   1030 AT TIME STEP     53, STRESS PERIOD      1
 UBDSV06 SAVING  SOURCE-SINK MIX IN MODEL SVA_TM_T         PACKAGE SVA_TM_T        CONNECTED TO MODEL SVA_TM_T         PACKAGE SSM              ON UNIT   1030 AT TIME STEP     53, STRESS PERIOD      1

 CONCENTRATION WILL BE SAVED ON UNIT 1031 AT END OF TIME STEP   53, STRESS PERIOD    1


  MASS BUDGET FOR ENTIRE MODEL AT END OF TIME STEP   53, STRESS PERIOD   1
  ---------------------------------------------------------------------------------------------------

     CUMULATIVE MASS      M       RATES FOR THIS TIME STEP      M/T          PACKAGE NAME    
     ------------------                 ------------------------                     ----------------

           IN:                                      IN:
           ---                                      ---
     STORAGE-AQUEOUS =       1.0899E-11       STORAGE-AQUEOUS =       1.0258E-22     MST                              
                 WEL =           0.0000                   WEL =           0.0000     SSM_WEL1                         
                 WEL =       5.3000E-02                   WEL =       5.0000E-04     SSM_WEL2                         

            TOTAL IN =       5.3000E-02              TOTAL IN =       5.0000E-04

          OUT:                                     OUT:
          ----                                     ----
     STORAGE-AQUEOUS =       3.8982E-02       STORAGE-AQUEOUS =       2.3184E-04     MST                              
                 WEL =       1.4018E-02                   WEL =       2.6816E-04     SSM_WEL1                         
                 WEL =           0.0000                   WEL =           0.0000     SSM_WEL2                         

           TOTAL OUT =       5.3000E-02             TOTAL OUT =       5.0000E-04

            IN - OUT =      -1.0069E-07              IN - OUT =      -3.2465E-09

 PERCENT DISCREPANCY =          -0.00     PERCENT DISCREPANCY =          -0.00




         TIME SUMMARY AT END OF TIME STEP   53 IN STRESS PERIOD    1
                    SECONDS     MINUTES      HOURS       DAYS        YEARS
                    -----------------------------------------------------------
   TIME STEP LENGTH 1.72800E+05  2880.0      48.000      2.0000     5.47570E-03
 STRESS PERIOD TIME 9.15840E+06 1.52640E+05  2544.0      106.00     0.29021    
         TOTAL TIME 9.15840E+06 1.52640E+05  2544.0      106.00     0.29021    


end timestep


start timestep kper="1" kstp="54" mode="normal"

 UBDSV1 SAVING     FLOW-JA-FACE ON UNIT   1030 AT TIME STEP     54, STRESS PERIOD      1
 UBDSV1 SAVING  STORAGE-AQUEOUS ON UNIT   1030 AT TIME STEP     54, STRESS PERIOD      1
 UBDSV06 SAVING  SOURCE-SINK MIX IN MODEL SVA_TM_T         PACKAGE SVA_TM_T        CONNECTED TO MODEL SVA_TM_T         PACKAGE SSM              ON UNIT   1030 AT TIME STEP     54, STRESS PERIOD      1

 CONCENTRATION WILL BE SAVED ON UNIT 1031 AT END OF TIME STEP   54, STRESS PERIOD    1


  MASS BUDGET FOR ENTIRE MODEL AT END OF TIME STEP   54, STRESS PERIOD   1
  ---------------------------------------------------------------------------------------------------

     CUMULATIVE MASS      M       RATES FOR THIS TIME STEP      M/T          PACKAGE NAME    
     ------------------                 ------------------------                     ----------------

           IN:                                      IN:
           ---                                      ---
     STORAGE-AQUEOUS =       1.0899E-11       STORAGE-AQUEOUS =       8.2803E-23     MST                              
                 WEL =           0.0000                   WEL =           0.0000     SSM_WEL1                         
                 WEL =       5.4000E-02                   WEL =       5.0000E-04     SSM_WEL2                         

            TOTAL IN =       5.4000E-02              TOTAL IN =       5.0000E-04

          OUT:                                     OUT:
          ----                                     ----
     STORAGE-AQUEOUS =       3.9439E-02       STORAGE-AQUEOUS =       2.2860E-04     MST                              
                 WEL =       1.4561E-02                   WEL =       2.7141E-04     SSM_WEL1                         
                 WEL =           0.0000                   WEL =           0.0000     SSM_WEL2                         

           TOTAL OUT =       5.4000E-02             TOTAL OUT =       5.0000E-04

            IN - OUT =      -1.0668E-07              IN - OUT =      -2.9960E-09

 PERCENT DISCREPANCY =          -0.00     PERCENT DISCREPANCY =          -0.00




         TIME SUMMARY AT END OF TIME STEP   54 IN STRESS PERIOD    1
                    SECONDS     MINUTES      HOURS       DAYS        YEARS
                    -----------------------------------------------------------
   TIME STEP LENGTH 1.72800E+05  2880.0      48.000      2.0000     5.47570E-03
 STRESS PERIOD TIME 9.33120E+06 1.55520E+05  2592.0      108.00     0.29569    
         TOTAL TIME 9.33120E+06 1.55520E+05  2592.0      108.00     0.29569    


end timestep


start timestep kper="1" kstp="55" mode="normal"

 UBDSV1 SAVING     FLOW-JA-FACE ON UNIT   1030 AT TIME STEP     55, STRESS PERIOD      1
 UBDSV1 SAVING  STORAGE-AQUEOUS ON UNIT   1030 AT TIME STEP     55, STRESS PERIOD      1
 UBDSV06 SAVING  SOURCE-SINK MIX IN MODEL SVA_TM_T         PACKAGE SVA_TM_T        CONNECTED TO MODEL SVA_TM_T         PACKAGE SSM              ON UNIT   1030 AT TIME STEP     55, STRESS PERIOD      1

 CONCENTRATION WILL BE SAVED ON UNIT 1031 AT END OF TIME STEP   55, STRESS PERIOD    1


  MASS BUDGET FOR ENTIRE MODEL AT END OF TIME STEP   55, STRESS PERIOD   1
  ---------------------------------------------------------------------------------------------------

     CUMULATIVE MASS      M       RATES FOR THIS TIME STEP      M/T          PACKAGE NAME    
     ------------------                 ------------------------                     ----------------

           IN:                                      IN:
           ---                                      ---
     STORAGE-AQUEOUS =       1.0899E-11       STORAGE-AQUEOUS =       6.9779E-23     MST                              
                 WEL =           0.0000                   WEL =           0.0000     SSM_WEL1                         
                 WEL =       5.5000E-02                   WEL =       5.0000E-04     SSM_WEL2                         

            TOTAL IN =       5.5000E-02              TOTAL IN =       5.0000E-04

          OUT:                                     OUT:
          ----                                     ----
     STORAGE-AQUEOUS =       3.9890E-02       STORAGE-AQUEOUS =       2.2544E-04     MST                              
                 WEL =       1.5110E-02                   WEL =       2.7457E-04     SSM_WEL1                         
                 WEL =           0.0000                   WEL =           0.0000     SSM_WEL2                         

           TOTAL OUT =       5.5000E-02             TOTAL OUT =       5.0000E-04

            IN - OUT =      -1.1267E-07              IN - OUT =      -2.9957E-09

 PERCENT DISCREPANCY =          -0.00     PERCENT DISCREPANCY =          -0.00




         TIME SUMMARY AT END OF TIME STEP   55 IN STRESS PERIOD    1
                    SECONDS     MINUTES      HOURS       DAYS        YEARS
                    -----------------------------------------------------------
   TIME STEP LENGTH 1.72800E+05  2880.0      48.000      2.0000     5.47570E-03
 STRESS PERIOD TIME 9.50400E+06 1.58400E+05  2640.0      110.00     0.30116    
         TOTAL TIME 9.50400E+06 1.58400E+05  2640.0      110.00     0.30116    


end timestep


start timestep kper="1" kstp="56" mode="normal"

 UBDSV1 SAVING     FLOW-JA-FACE ON UNIT   1030 AT TIME STEP     56, STRESS PERIOD      1
 UBDSV1 SAVING  STORAGE-AQUEOUS ON UNIT   1030 AT TIME STEP     56, STRESS PERIOD      1
 UBDSV06 SAVING  SOURCE-SINK MIX IN MODEL SVA_TM_T         PACKAGE SVA_TM_T        CONNECTED TO MODEL SVA_TM_T         PACKAGE SSM              ON UNIT   1030 AT TIME STEP     56, STRESS PERIOD      1

 CONCENTRATION WILL BE SAVED ON UNIT 1031 AT END OF TIME STEP   56, STRESS PERIOD    1


  MASS BUDGET FOR ENTIRE MODEL AT END OF TIME STEP   56, STRESS PERIOD   1
  ---------------------------------------------------------------------------------------------------

     CUMULATIVE MASS      M       RATES FOR THIS TIME STEP      M/T          PACKAGE NAME    
     ------------------                 ------------------------                     ----------------

           IN:                                      IN:
           ---                                      ---
     STORAGE-AQUEOUS =       1.0899E-11       STORAGE-AQUEOUS =       5.6557E-23     MST                              
                 WEL =           0.0000                   WEL =           0.0000     SSM_WEL1                         
                 WEL =       5.6000E-02                   WEL =       5.0000E-04     SSM_WEL2                         

            TOTAL IN =       5.6000E-02              TOTAL IN =       5.0000E-04

          OUT:                                     OUT:
          ----                                     ----
     STORAGE-AQUEOUS =       4.0335E-02       STORAGE-AQUEOUS =       2.2235E-04     MST                              
                 WEL =       1.5665E-02                   WEL =       2.7765E-04     SSM_WEL1                         
                 WEL =           0.0000                   WEL =           0.0000     SSM_WEL2                         

           TOTAL OUT =       5.6000E-02             TOTAL OUT =       5.0000E-04

            IN - OUT =      -1.1880E-07              IN - OUT =      -3.0643E-09

 PERCENT DISCREPANCY =          -0.00     PERCENT DISCREPANCY =          -0.00




         TIME SUMMARY AT END OF TIME STEP   56 IN STRESS PERIOD    1
                    SECONDS     MINUTES      HOURS       DAYS        YEARS
                    -----------------------------------------------------------
   TIME STEP LENGTH 1.72800E+05  2880.0      48.000      2.0000     5.47570E-03
 STRESS PERIOD TIME 9.67680E+06 1.61280E+05  2688.0      112.00     0.30664    
         TOTAL TIME 9.67680E+06 1.61280E+05  2688.0      112.00     0.30664    


end timestep


start timestep kper="1" kstp="57" mode="normal"

 UBDSV1 SAVING     FLOW-JA-FACE ON UNIT   1030 AT TIME STEP     57, STRESS PERIOD      1
 UBDSV1 SAVING  STORAGE-AQUEOUS ON UNIT   1030 AT TIME STEP     57, STRESS PERIOD      1
 UBDSV06 SAVING  SOURCE-SINK MIX IN MODEL SVA_TM_T         PACKAGE SVA_TM_T        CONNECTED TO MODEL SVA_TM_T         PACKAGE SSM              ON UNIT   1030 AT TIME STEP     57, STRESS PERIOD      1

 CONCENTRATION WILL BE SAVED ON UNIT 1031 AT END OF TIME STEP   57, STRESS PERIOD    1


  MASS BUDGET FOR ENTIRE MODEL AT END OF TIME STEP   57, STRESS PERIOD   1
  ---------------------------------------------------------------------------------------------------

     CUMULATIVE MASS      M       RATES FOR THIS TIME STEP      M/T          PACKAGE NAME    
     ------------------                 ------------------------                     ----------------

           IN:                                      IN:
           ---                                      ---
     STORAGE-AQUEOUS =       1.0899E-11       STORAGE-AQUEOUS =       4.7964E-23     MST                              
                 WEL =           0.0000                   WEL =           0.0000     SSM_WEL1                         
                 WEL =       5.7000E-02                   WEL =       5.0000E-04     SSM_WEL2                         

            TOTAL IN =       5.7000E-02              TOTAL IN =       5.0000E-04

          OUT:                                     OUT:
          ----                                     ----
     STORAGE-AQUEOUS =       4.0774E-02       STORAGE-AQUEOUS =       2.1934E-04     MST                              
                 WEL =       1.6227E-02                   WEL =       2.8066E-04     SSM_WEL1                         
                 WEL =           0.0000                   WEL =           0.0000     SSM_WEL2                         

           TOTAL OUT =       5.7000E-02             TOTAL OUT =       5.0000E-04

            IN - OUT =      -1.2494E-07              IN - OUT =      -3.0710E-09

 PERCENT DISCREPANCY =          -0.00     PERCENT DISCREPANCY =          -0.00




         TIME SUMMARY AT END OF TIME STEP   57 IN STRESS PERIOD    1
                    SECONDS     MINUTES      HOURS       DAYS        YEARS
                    -----------------------------------------------------------
   TIME STEP LENGTH 1.72800E+05  2880.0      48.000      2.0000     5.47570E-03
 STRESS PERIOD TIME 9.84960E+06 1.64160E+05  2736.0      114.00     0.31211    
         TOTAL TIME 9.84960E+06 1.64160E+05  2736.0      114.00     0.31211    


end timestep


start timestep kper="1" kstp="58" mode="normal"

 UBDSV1 SAVING     FLOW-JA-FACE ON UNIT   1030 AT TIME STEP     58, STRESS PERIOD      1
 UBDSV1 SAVING  STORAGE-AQUEOUS ON UNIT   1030 AT TIME STEP     58, STRESS PERIOD      1
 UBDSV06 SAVING  SOURCE-SINK MIX IN MODEL SVA_TM_T         PACKAGE SVA_TM_T        CONNECTED TO MODEL SVA_TM_T         PACKAGE SSM              ON UNIT   1030 AT TIME STEP     58, STRESS PERIOD      1

 CONCENTRATION WILL BE SAVED ON UNIT 1031 AT END OF TIME STEP   58, STRESS PERIOD    1


  MASS BUDGET FOR ENTIRE MODEL AT END OF TIME STEP   58, STRESS PERIOD   1
  ---------------------------------------------------------------------------------------------------

     CUMULATIVE MASS      M       RATES FOR THIS TIME STEP      M/T          PACKAGE NAME    
     ------------------                 ------------------------                     ----------------

           IN:                                      IN:
           ---                                      ---
     STORAGE-AQUEOUS =       1.0899E-11       STORAGE-AQUEOUS =       4.0110E-23     MST                              
                 WEL =           0.0000                   WEL =           0.0000     SSM_WEL1                         
                 WEL =       5.8000E-02                   WEL =       5.0000E-04     SSM_WEL2                         

            TOTAL IN =       5.8000E-02              TOTAL IN =       5.0000E-04

          OUT:                                     OUT:
          ----                                     ----
     STORAGE-AQUEOUS =       4.1206E-02       STORAGE-AQUEOUS =       2.1641E-04     MST                              
                 WEL =       1.6794E-02                   WEL =       2.8359E-04     SSM_WEL1                         
                 WEL =           0.0000                   WEL =           0.0000     SSM_WEL2                         

           TOTAL OUT =       5.8000E-02             TOTAL OUT =       5.0000E-04

            IN - OUT =      -1.3129E-07              IN - OUT =      -3.1754E-09

 PERCENT DISCREPANCY =          -0.00     PERCENT DISCREPANCY =          -0.00




         TIME SUMMARY AT END OF TIME STEP   58 IN STRESS PERIOD    1
                    SECONDS     MINUTES      HOURS       DAYS        YEARS
                    -----------------------------------------------------------
   TIME STEP LENGTH 1.72800E+05  2880.0      48.000      2.0000     5.47570E-03
 STRESS PERIOD TIME 1.00224E+07 1.67040E+05  2784.0      116.00     0.31759    
         TOTAL TIME 1.00224E+07 1.67040E+05  2784.0      116.00     0.31759    


end timestep


start timestep kper="1" kstp="59" mode="normal"

 UBDSV1 SAVING     FLOW-JA-FACE ON UNIT   1030 AT TIME STEP     59, STRESS PERIOD      1
 UBDSV1 SAVING  STORAGE-AQUEOUS ON UNIT   1030 AT TIME STEP     59, STRESS PERIOD      1
 UBDSV06 SAVING  SOURCE-SINK MIX IN MODEL SVA_TM_T         PACKAGE SVA_TM_T        CONNECTED TO MODEL SVA_TM_T         PACKAGE SSM              ON UNIT   1030 AT TIME STEP     59, STRESS PERIOD      1

 CONCENTRATION WILL BE SAVED ON UNIT 1031 AT END OF TIME STEP   59, STRESS PERIOD    1


  MASS BUDGET FOR ENTIRE MODEL AT END OF TIME STEP   59, STRESS PERIOD   1
  ---------------------------------------------------------------------------------------------------

     CUMULATIVE MASS      M       RATES FOR THIS TIME STEP      M/T          PACKAGE NAME    
     ------------------                 ------------------------                     ----------------

           IN:                                      IN:
           ---                                      ---
     STORAGE-AQUEOUS =       1.0899E-11       STORAGE-AQUEOUS =       3.1854E-23     MST                              
                 WEL =           0.0000                   WEL =           0.0000     SSM_WEL1                         
                 WEL =       5.9000E-02                   WEL =       5.0000E-04     SSM_WEL2                         

            TOTAL IN =       5.9000E-02              TOTAL IN =       5.0000E-04

          OUT:                                     OUT:
          ----                                     ----
     STORAGE-AQUEOUS =       4.1633E-02       STORAGE-AQUEOUS =       2.1355E-04     MST                              
                 WEL =       1.7367E-02                   WEL =       2.8646E-04     SSM_WEL1                         
                 WEL =           0.0000                   WEL =           0.0000     SSM_WEL2                         

           TOTAL OUT =       5.9000E-02             TOTAL OUT =       5.0000E-04

            IN - OUT =      -1.3780E-07              IN - OUT =      -3.2551E-09

 PERCENT DISCREPANCY =          -0.00     PERCENT DISCREPANCY =          -0.00




         TIME SUMMARY AT END OF TIME STEP   59 IN STRESS PERIOD    1
                    SECONDS     MINUTES      HOURS       DAYS        YEARS
                    -----------------------------------------------------------
   TIME STEP LENGTH 1.72800E+05  2880.0      48.000      2.0000     5.47570E-03
 STRESS PERIOD TIME 1.01952E+07 1.69920E+05  2832.0      118.00     0.32307    
         TOTAL TIME 1.01952E+07 1.69920E+05  2832.0      118.00     0.32307    


end timestep


start timestep kper="1" kstp="60" mode="normal"

 UBDSV1 SAVING     FLOW-JA-FACE ON UNIT   1030 AT TIME STEP     60, STRESS PERIOD      1
 UBDSV1 SAVING  STORAGE-AQUEOUS ON UNIT   1030 AT TIME STEP     60, STRESS PERIOD      1
 UBDSV06 SAVING  SOURCE-SINK MIX IN MODEL SVA_TM_T         PACKAGE SVA_TM_T        CONNECTED TO MODEL SVA_TM_T         PACKAGE SSM              ON UNIT   1030 AT TIME STEP     60, STRESS PERIOD      1

 CONCENTRATION WILL BE SAVED ON UNIT 1031 AT END OF TIME STEP   60, STRESS PERIOD    1


  MASS BUDGET FOR ENTIRE MODEL AT END OF TIME STEP   60, STRESS PERIOD   1
  ---------------------------------------------------------------------------------------------------

     CUMULATIVE MASS      M       RATES FOR THIS TIME STEP      M/T          PACKAGE NAME    
     ------------------                 ------------------------                     ----------------

           IN:                                      IN:
           ---                                      ---
     STORAGE-AQUEOUS =       1.0899E-11       STORAGE-AQUEOUS =       2.6916E-23     MST                              
                 WEL =           0.0000                   WEL =           0.0000     SSM_WEL1                         
                 WEL =       6.0000E-02                   WEL =       5.0000E-04     SSM_WEL2                         

            TOTAL IN =       6.0000E-02              TOTAL IN =       5.0000E-04

          OUT:                                     OUT:
          ----                                     ----
     STORAGE-AQUEOUS =       4.2055E-02       STORAGE-AQUEOUS =       2.1075E-04     MST                              
                 WEL =       1.7945E-02                   WEL =       2.8925E-04     SSM_WEL1                         
                 WEL =           0.0000                   WEL =           0.0000     SSM_WEL2                         

           TOTAL OUT =       6.0000E-02             TOTAL OUT =       5.0000E-04

            IN - OUT =      -1.4523E-07              IN - OUT =      -3.7157E-09

 PERCENT DISCREPANCY =          -0.00     PERCENT DISCREPANCY =          -0.00




         TIME SUMMARY AT END OF TIME STEP   60 IN STRESS PERIOD    1
                    SECONDS     MINUTES      HOURS       DAYS        YEARS
                    -----------------------------------------------------------
   TIME STEP LENGTH 1.72800E+05  2880.0      48.000      2.0000     5.47570E-03
 STRESS PERIOD TIME 1.03680E+07 1.72800E+05  2880.0      120.00     0.32854    
         TOTAL TIME 1.03680E+07 1.72800E+05  2880.0      120.00     0.32854    


end timestep


start timestep kper="1" kstp="61" mode="normal"

 UBDSV1 SAVING     FLOW-JA-FACE ON UNIT   1030 AT TIME STEP     61, STRESS PERIOD      1
 UBDSV1 SAVING  STORAGE-AQUEOUS ON UNIT   1030 AT TIME STEP     61, STRESS PERIOD      1
 UBDSV06 SAVING  SOURCE-SINK MIX IN MODEL SVA_TM_T         PACKAGE SVA_TM_T        CONNECTED TO MODEL SVA_TM_T         PACKAGE SSM              ON UNIT   1030 AT TIME STEP     61, STRESS PERIOD      1

 CONCENTRATION WILL BE SAVED ON UNIT 1031 AT END OF TIME STEP   61, STRESS PERIOD    1


  MASS BUDGET FOR ENTIRE MODEL AT END OF TIME STEP   61, STRESS PERIOD   1
  ---------------------------------------------------------------------------------------------------

     CUMULATIVE MASS      M       RATES FOR THIS TIME STEP      M/T          PACKAGE NAME    
     ------------------                 ------------------------                     ----------------

           IN:                                      IN:
           ---                                      ---
     STORAGE-AQUEOUS =       1.0899E-11       STORAGE-AQUEOUS =       2.3373E-23     MST                              
                 WEL =           0.0000                   WEL =           0.0000     SSM_WEL1                         
                 WEL =       6.1000E-02                   WEL =       5.0000E-04     SSM_WEL2                         

            TOTAL IN =       6.1000E-02              TOTAL IN =       5.0000E-04

          OUT:                                     OUT:
          ----                                     ----
     STORAGE-AQUEOUS =       4.2471E-02       STORAGE-AQUEOUS =       2.0802E-04     MST                              
                 WEL =       1.8529E-02                   WEL =       2.9198E-04     SSM_WEL1                         
                 WEL =           0.0000                   WEL =           0.0000     SSM_WEL2                         

           TOTAL OUT =       6.1000E-02             TOTAL OUT =       5.0000E-04

            IN - OUT =      -1.5363E-07              IN - OUT =      -4.2006E-09

 PERCENT DISCREPANCY =          -0.00     PERCENT DISCREPANCY =          -0.00




         TIME SUMMARY AT END OF TIME STEP   61 IN STRESS PERIOD    1
                    SECONDS     MINUTES      HOURS       DAYS        YEARS
                    -----------------------------------------------------------
   TIME STEP LENGTH 1.72800E+05  2880.0      48.000      2.0000     5.47570E-03
 STRESS PERIOD TIME 1.05408E+07 1.75680E+05  2928.0      122.00     0.33402    
         TOTAL TIME 1.05408E+07 1.75680E+05  2928.0      122.00     0.33402    


end timestep


start timestep kper="1" kstp="62" mode="normal"

 UBDSV1 SAVING     FLOW-JA-FACE ON UNIT   1030 AT TIME STEP     62, STRESS PERIOD      1
 UBDSV1 SAVING  STORAGE-AQUEOUS ON UNIT   1030 AT TIME STEP     62, STRESS PERIOD      1
 UBDSV06 SAVING  SOURCE-SINK MIX IN MODEL SVA_TM_T         PACKAGE SVA_TM_T        CONNECTED TO MODEL SVA_TM_T         PACKAGE SSM              ON UNIT   1030 AT TIME STEP     62, STRESS PERIOD      1

 CONCENTRATION WILL BE SAVED ON UNIT 1031 AT END OF TIME STEP   62, STRESS PERIOD    1


  MASS BUDGET FOR ENTIRE MODEL AT END OF TIME STEP   62, STRESS PERIOD   1
  ---------------------------------------------------------------------------------------------------

     CUMULATIVE MASS      M       RATES FOR THIS TIME STEP      M/T          PACKAGE NAME    
     ------------------                 ------------------------                     ----------------

           IN:                                      IN:
           ---                                      ---
     STORAGE-AQUEOUS =       1.0899E-11       STORAGE-AQUEOUS =       1.9294E-23     MST                              
                 WEL =           0.0000                   WEL =           0.0000     SSM_WEL1                         
                 WEL =       6.2000E-02                   WEL =       5.0000E-04     SSM_WEL2                         

            TOTAL IN =       6.2000E-02              TOTAL IN =       5.0000E-04

          OUT:                                     OUT:
          ----                                     ----
     STORAGE-AQUEOUS =       4.2882E-02       STORAGE-AQUEOUS =       2.0536E-04     MST                              
                 WEL =       1.9118E-02                   WEL =       2.9464E-04     SSM_WEL1                         
                 WEL =           0.0000                   WEL =           0.0000     SSM_WEL2                         

           TOTAL OUT =       6.2000E-02             TOTAL OUT =       5.0000E-04

            IN - OUT =      -1.6145E-07              IN - OUT =      -3.9089E-09

 PERCENT DISCREPANCY =          -0.00     PERCENT DISCREPANCY =          -0.00




         TIME SUMMARY AT END OF TIME STEP   62 IN STRESS PERIOD    1
                    SECONDS     MINUTES      HOURS       DAYS        YEARS
                    -----------------------------------------------------------
   TIME STEP LENGTH 1.72800E+05  2880.0      48.000      2.0000     5.47570E-03
 STRESS PERIOD TIME 1.07136E+07 1.78560E+05  2976.0      124.00     0.33949    
         TOTAL TIME 1.07136E+07 1.78560E+05  2976.0      124.00     0.33949    


end timestep


start timestep kper="1" kstp="63" mode="normal"

 UBDSV1 SAVING     FLOW-JA-FACE ON UNIT   1030 AT TIME STEP     63, STRESS PERIOD      1
 UBDSV1 SAVING  STORAGE-AQUEOUS ON UNIT   1030 AT TIME STEP     63, STRESS PERIOD      1
 UBDSV06 SAVING  SOURCE-SINK MIX IN MODEL SVA_TM_T         PACKAGE SVA_TM_T        CONNECTED TO MODEL SVA_TM_T         PACKAGE SSM              ON UNIT   1030 AT TIME STEP     63, STRESS PERIOD      1

 CONCENTRATION WILL BE SAVED ON UNIT 1031 AT END OF TIME STEP   63, STRESS PERIOD    1


  MASS BUDGET FOR ENTIRE MODEL AT END OF TIME STEP   63, STRESS PERIOD   1
  ---------------------------------------------------------------------------------------------------

     CUMULATIVE MASS      M       RATES FOR THIS TIME STEP      M/T          PACKAGE NAME    
     ------------------                 ------------------------                     ----------------

           IN:                                      IN:
           ---                                      ---
     STORAGE-AQUEOUS =       1.0899E-11       STORAGE-AQUEOUS =       1.4911E-23     MST                              
                 WEL =           0.0000                   WEL =           0.0000     SSM_WEL1                         
                 WEL =       6.3000E-02                   WEL =       5.0000E-04     SSM_WEL2                         

            TOTAL IN =       6.3000E-02              TOTAL IN =       5.0000E-04

          OUT:                                     OUT:
          ----                                     ----
     STORAGE-AQUEOUS =       4.3287E-02       STORAGE-AQUEOUS =       2.0277E-04     MST                              
                 WEL =       1.9713E-02                   WEL =       2.9724E-04     SSM_WEL1                         
                 WEL =           0.0000                   WEL =           0.0000     SSM_WEL2                         

           TOTAL OUT =       6.3000E-02             TOTAL OUT =       5.0000E-04

            IN - OUT =      -1.6958E-07              IN - OUT =      -4.0636E-09

 PERCENT DISCREPANCY =          -0.00     PERCENT DISCREPANCY =          -0.00




         TIME SUMMARY AT END OF TIME STEP   63 IN STRESS PERIOD    1
                    SECONDS     MINUTES      HOURS       DAYS        YEARS
                    -----------------------------------------------------------
   TIME STEP LENGTH 1.72800E+05  2880.0      48.000      2.0000     5.47570E-03
 STRESS PERIOD TIME 1.08864E+07 1.81440E+05  3024.0      126.00     0.34497    
         TOTAL TIME 1.08864E+07 1.81440E+05  3024.0      126.00     0.34497    


end timestep


start timestep kper="1" kstp="64" mode="normal"

 UBDSV1 SAVING     FLOW-JA-FACE ON UNIT   1030 AT TIME STEP     64, STRESS PERIOD      1
 UBDSV1 SAVING  STORAGE-AQUEOUS ON UNIT   1030 AT TIME STEP     64, STRESS PERIOD      1
 UBDSV06 SAVING  SOURCE-SINK MIX IN MODEL SVA_TM_T         PACKAGE SVA_TM_T        CONNECTED TO MODEL SVA_TM_T         PACKAGE SSM              ON UNIT   1030 AT TIME STEP     64, STRESS PERIOD      1

 CONCENTRATION WILL BE SAVED ON UNIT 1031 AT END OF TIME STEP   64, STRESS PERIOD    1


  MASS BUDGET FOR ENTIRE MODEL AT END OF TIME STEP   64, STRESS PERIOD   1
  ---------------------------------------------------------------------------------------------------

     CUMULATIVE MASS      M       RATES FOR THIS TIME STEP      M/T          PACKAGE NAME    
     ------------------                 ------------------------                     ----------------

           IN:                                      IN:
           ---                                      ---
     STORAGE-AQUEOUS =       1.0899E-11       STORAGE-AQUEOUS =       1.3211E-23     MST                              
                 WEL =           0.0000                   WEL =           0.0000     SSM_WEL1                         
                 WEL =       6.4000E-02                   WEL =       5.0000E-04     SSM_WEL2                         

            TOTAL IN =       6.4000E-02              TOTAL IN =       5.0000E-04

          OUT:                                     OUT:
          ----                                     ----
     STORAGE-AQUEOUS =       4.3688E-02       STORAGE-AQUEOUS =       2.0023E-04     MST                              
                 WEL =       2.0312E-02                   WEL =       2.9977E-04     SSM_WEL1                         
                 WEL =           0.0000                   WEL =           0.0000     SSM_WEL2                         

           TOTAL OUT =       6.4000E-02             TOTAL OUT =       5.0000E-04

            IN - OUT =      -1.7916E-07              IN - OUT =      -4.7908E-09

 PERCENT DISCREPANCY =          -0.00     PERCENT DISCREPANCY =          -0.00




         TIME SUMMARY AT END OF TIME STEP   64 IN STRESS PERIOD    1
                    SECONDS     MINUTES      HOURS       DAYS        YEARS
                    -----------------------------------------------------------
   TIME STEP LENGTH 1.72800E+05  2880.0      48.000      2.0000     5.47570E-03
 STRESS PERIOD TIME 1.10592E+07 1.84320E+05  3072.0      128.00     0.35044    
         TOTAL TIME 1.10592E+07 1.84320E+05  3072.0      128.00     0.35044    


end timestep


start timestep kper="1" kstp="65" mode="normal"

 UBDSV1 SAVING     FLOW-JA-FACE ON UNIT   1030 AT TIME STEP     65, STRESS PERIOD      1
 UBDSV1 SAVING  STORAGE-AQUEOUS ON UNIT   1030 AT TIME STEP     65, STRESS PERIOD      1
 UBDSV06 SAVING  SOURCE-SINK MIX IN MODEL SVA_TM_T         PACKAGE SVA_TM_T        CONNECTED TO MODEL SVA_TM_T         PACKAGE SSM              ON UNIT   1030 AT TIME STEP     65, STRESS PERIOD      1

 CONCENTRATION WILL BE SAVED ON UNIT 1031 AT END OF TIME STEP   65, STRESS PERIOD    1


  MASS BUDGET FOR ENTIRE MODEL AT END OF TIME STEP   65, STRESS PERIOD   1
  ---------------------------------------------------------------------------------------------------

     CUMULATIVE MASS      M       RATES FOR THIS TIME STEP      M/T          PACKAGE NAME    
     ------------------                 ------------------------                     ----------------

           IN:                                      IN:
           ---                                      ---
     STORAGE-AQUEOUS =       1.0899E-11       STORAGE-AQUEOUS =       1.1207E-23     MST                              
                 WEL =           0.0000                   WEL =           0.0000     SSM_WEL1                         
                 WEL =       6.5000E-02                   WEL =       5.0000E-04     SSM_WEL2                         

            TOTAL IN =       6.5000E-02              TOTAL IN =       5.0000E-04

          OUT:                                     OUT:
          ----                                     ----
     STORAGE-AQUEOUS =       4.4083E-02       STORAGE-AQUEOUS =       1.9776E-04     MST                              
                 WEL =       2.0917E-02                   WEL =       3.0224E-04     SSM_WEL1                         
                 WEL =           0.0000                   WEL =           0.0000     SSM_WEL2                         

           TOTAL OUT =       6.5000E-02             TOTAL OUT =       5.0000E-04

            IN - OUT =      -1.8479E-07              IN - OUT =      -2.8154E-09

 PERCENT DISCREPANCY =          -0.00     PERCENT DISCREPANCY =          -0.00




         TIME SUMMARY AT END OF TIME STEP   65 IN STRESS PERIOD    1
                    SECONDS     MINUTES      HOURS       DAYS        YEARS
                    -----------------------------------------------------------
   TIME STEP LENGTH 1.72800E+05  2880.0      48.000      2.0000     5.47570E-03
 STRESS PERIOD TIME 1.12320E+07 1.87200E+05  3120.0      130.00     0.35592    
         TOTAL TIME 1.12320E+07 1.87200E+05  3120.0      130.00     0.35592    


end timestep


start timestep kper="1" kstp="66" mode="normal"

 UBDSV1 SAVING     FLOW-JA-FACE ON UNIT   1030 AT TIME STEP     66, STRESS PERIOD      1
 UBDSV1 SAVING  STORAGE-AQUEOUS ON UNIT   1030 AT TIME STEP     66, STRESS PERIOD      1
 UBDSV06 SAVING  SOURCE-SINK MIX IN MODEL SVA_TM_T         PACKAGE SVA_TM_T        CONNECTED TO MODEL SVA_TM_T         PACKAGE SSM              ON UNIT   1030 AT TIME STEP     66, STRESS PERIOD      1

 CONCENTRATION WILL BE SAVED ON UNIT 1031 AT END OF TIME STEP   66, STRESS PERIOD    1


  MASS BUDGET FOR ENTIRE MODEL AT END OF TIME STEP   66, STRESS PERIOD   1
  ---------------------------------------------------------------------------------------------------

     CUMULATIVE MASS      M       RATES FOR THIS TIME STEP      M/T          PACKAGE NAME    
     ------------------                 ------------------------                     ----------------

           IN:                                      IN:
           ---                                      ---
     STORAGE-AQUEOUS =       1.0899E-11       STORAGE-AQUEOUS =       8.5228E-24     MST                              
                 WEL =           0.0000                   WEL =           0.0000     SSM_WEL1                         
                 WEL =       6.6000E-02                   WEL =       5.0000E-04     SSM_WEL2                         

            TOTAL IN =       6.6000E-02              TOTAL IN =       5.0000E-04

          OUT:                                     OUT:
          ----                                     ----
     STORAGE-AQUEOUS =       4.4474E-02       STORAGE-AQUEOUS =       1.9536E-04     MST                              
                 WEL =       2.1526E-02                   WEL =       3.0465E-04     SSM_WEL1                         
                 WEL =           0.0000                   WEL =           0.0000     SSM_WEL2                         

           TOTAL OUT =       6.6000E-02             TOTAL OUT =       5.0000E-04

            IN - OUT =      -1.9066E-07              IN - OUT =      -2.9341E-09

 PERCENT DISCREPANCY =          -0.00     PERCENT DISCREPANCY =          -0.00




         TIME SUMMARY AT END OF TIME STEP   66 IN STRESS PERIOD    1
                    SECONDS     MINUTES      HOURS       DAYS        YEARS
                    -----------------------------------------------------------
   TIME STEP LENGTH 1.72800E+05  2880.0      48.000      2.0000     5.47570E-03
 STRESS PERIOD TIME 1.14048E+07 1.90080E+05  3168.0      132.00     0.36140    
         TOTAL TIME 1.14048E+07 1.90080E+05  3168.0      132.00     0.36140    


end timestep


start timestep kper="1" kstp="67" mode="normal"

 UBDSV1 SAVING     FLOW-JA-FACE ON UNIT   1030 AT TIME STEP     67, STRESS PERIOD      1
 UBDSV1 SAVING  STORAGE-AQUEOUS ON UNIT   1030 AT TIME STEP     67, STRESS PERIOD      1
 UBDSV06 SAVING  SOURCE-SINK MIX IN MODEL SVA_TM_T         PACKAGE SVA_TM_T        CONNECTED TO MODEL SVA_TM_T         PACKAGE SSM              ON UNIT   1030 AT TIME STEP     67, STRESS PERIOD      1

 CONCENTRATION WILL BE SAVED ON UNIT 1031 AT END OF TIME STEP   67, STRESS PERIOD    1


  MASS BUDGET FOR ENTIRE MODEL AT END OF TIME STEP   67, STRESS PERIOD   1
  ---------------------------------------------------------------------------------------------------

     CUMULATIVE MASS      M       RATES FOR THIS TIME STEP      M/T          PACKAGE NAME    
     ------------------                 ------------------------                     ----------------

           IN:                                      IN:
           ---                                      ---
     STORAGE-AQUEOUS =       1.0899E-11       STORAGE-AQUEOUS =       7.1928E-24     MST                              
                 WEL =           0.0000                   WEL =           0.0000     SSM_WEL1                         
                 WEL =       6.7000E-02                   WEL =       5.0000E-04     SSM_WEL2                         

            TOTAL IN =       6.7000E-02              TOTAL IN =       5.0000E-04

          OUT:                                     OUT:
          ----                                     ----
     STORAGE-AQUEOUS =       4.4860E-02       STORAGE-AQUEOUS =       1.9301E-04     MST                              
                 WEL =       2.2140E-02                   WEL =       3.0700E-04     SSM_WEL1                         
                 WEL =           0.0000                   WEL =           0.0000     SSM_WEL2                         

           TOTAL OUT =       6.7000E-02             TOTAL OUT =       5.0000E-04

            IN - OUT =      -1.9611E-07              IN - OUT =      -2.7243E-09

 PERCENT DISCREPANCY =          -0.00     PERCENT DISCREPANCY =          -0.00




         TIME SUMMARY AT END OF TIME STEP   67 IN STRESS PERIOD    1
                    SECONDS     MINUTES      HOURS       DAYS        YEARS
                    -----------------------------------------------------------
   TIME STEP LENGTH 1.72800E+05  2880.0      48.000      2.0000     5.47570E-03
 STRESS PERIOD TIME 1.15776E+07 1.92960E+05  3216.0      134.00     0.36687    
         TOTAL TIME 1.15776E+07 1.92960E+05  3216.0      134.00     0.36687    


end timestep


start timestep kper="1" kstp="68" mode="normal"

 UBDSV1 SAVING     FLOW-JA-FACE ON UNIT   1030 AT TIME STEP     68, STRESS PERIOD      1
 UBDSV1 SAVING  STORAGE-AQUEOUS ON UNIT   1030 AT TIME STEP     68, STRESS PERIOD      1
 UBDSV06 SAVING  SOURCE-SINK MIX IN MODEL SVA_TM_T         PACKAGE SVA_TM_T        CONNECTED TO MODEL SVA_TM_T         PACKAGE SSM              ON UNIT   1030 AT TIME STEP     68, STRESS PERIOD      1

 CONCENTRATION WILL BE SAVED ON UNIT 1031 AT END OF TIME STEP   68, STRESS PERIOD    1


  MASS BUDGET FOR ENTIRE MODEL AT END OF TIME STEP   68, STRESS PERIOD   1
  ---------------------------------------------------------------------------------------------------

     CUMULATIVE MASS      M       RATES FOR THIS TIME STEP      M/T          PACKAGE NAME    
     ------------------                 ------------------------                     ----------------

           IN:                                      IN:
           ---                                      ---
     STORAGE-AQUEOUS =       1.0899E-11       STORAGE-AQUEOUS =       6.3399E-24     MST                              
                 WEL =           0.0000                   WEL =           0.0000     SSM_WEL1                         
                 WEL =       6.8000E-02                   WEL =       5.0000E-04     SSM_WEL2                         

            TOTAL IN =       6.8000E-02              TOTAL IN =       5.0000E-04

          OUT:                                     OUT:
          ----                                     ----
     STORAGE-AQUEOUS =       4.5241E-02       STORAGE-AQUEOUS =       1.9073E-04     MST                              
                 WEL =       2.2759E-02                   WEL =       3.0928E-04     SSM_WEL1                         
                 WEL =           0.0000                   WEL =           0.0000     SSM_WEL2                         

           TOTAL OUT =       6.8000E-02             TOTAL OUT =       5.0000E-04

            IN - OUT =      -2.0445E-07              IN - OUT =      -4.1692E-09

 PERCENT DISCREPANCY =          -0.00     PERCENT DISCREPANCY =          -0.00




         TIME SUMMARY AT END OF TIME STEP   68 IN STRESS PERIOD    1
                    SECONDS     MINUTES      HOURS       DAYS        YEARS
                    -----------------------------------------------------------
   TIME STEP LENGTH 1.72800E+05  2880.0      48.000      2.0000     5.47570E-03
 STRESS PERIOD TIME 1.17504E+07 1.95840E+05  3264.0      136.00     0.37235    
         TOTAL TIME 1.17504E+07 1.95840E+05  3264.0      136.00     0.37235    


end timestep


start timestep kper="1" kstp="69" mode="normal"

 UBDSV1 SAVING     FLOW-JA-FACE ON UNIT   1030 AT TIME STEP     69, STRESS PERIOD      1
 UBDSV1 SAVING  STORAGE-AQUEOUS ON UNIT   1030 AT TIME STEP     69, STRESS PERIOD      1
 UBDSV06 SAVING  SOURCE-SINK MIX IN MODEL SVA_TM_T         PACKAGE SVA_TM_T        CONNECTED TO MODEL SVA_TM_T         PACKAGE SSM              ON UNIT   1030 AT TIME STEP     69, STRESS PERIOD      1

 CONCENTRATION WILL BE SAVED ON UNIT 1031 AT END OF TIME STEP   69, STRESS PERIOD    1


  MASS BUDGET FOR ENTIRE MODEL AT END OF TIME STEP   69, STRESS PERIOD   1
  ---------------------------------------------------------------------------------------------------

     CUMULATIVE MASS      M       RATES FOR THIS TIME STEP      M/T          PACKAGE NAME    
     ------------------                 ------------------------                     ----------------

           IN:                                      IN:
           ---                                      ---
     STORAGE-AQUEOUS =       1.0899E-11       STORAGE-AQUEOUS =       5.1063E-24     MST                              
                 WEL =           0.0000                   WEL =           0.0000     SSM_WEL1                         
                 WEL =       6.9000E-02                   WEL =       5.0000E-04     SSM_WEL2                         

            TOTAL IN =       6.9000E-02              TOTAL IN =       5.0000E-04

          OUT:                                     OUT:
          ----                                     ----
     STORAGE-AQUEOUS =       4.5618E-02       STORAGE-AQUEOUS =       1.8851E-04     MST                              
                 WEL =       2.3382E-02                   WEL =       3.1150E-04     SSM_WEL1                         
                 WEL =           0.0000                   WEL =           0.0000     SSM_WEL2                         

           TOTAL OUT =       6.9000E-02             TOTAL OUT =       5.0001E-04

            IN - OUT =      -2.2049E-07              IN - OUT =      -8.0204E-09

 PERCENT DISCREPANCY =          -0.00     PERCENT DISCREPANCY =          -0.00




         TIME SUMMARY AT END OF TIME STEP   69 IN STRESS PERIOD    1
                    SECONDS     MINUTES      HOURS       DAYS        YEARS
                    -----------------------------------------------------------
   TIME STEP LENGTH 1.72800E+05  2880.0      48.000      2.0000     5.47570E-03
 STRESS PERIOD TIME 1.19232E+07 1.98720E+05  3312.0      138.00     0.37782    
         TOTAL TIME 1.19232E+07 1.98720E+05  3312.0      138.00     0.37782    


end timestep


start timestep kper="1" kstp="70" mode="normal"

 UBDSV1 SAVING     FLOW-JA-FACE ON UNIT   1030 AT TIME STEP     70, STRESS PERIOD      1
 UBDSV1 SAVING  STORAGE-AQUEOUS ON UNIT   1030 AT TIME STEP     70, STRESS PERIOD      1
 UBDSV06 SAVING  SOURCE-SINK MIX IN MODEL SVA_TM_T         PACKAGE SVA_TM_T        CONNECTED TO MODEL SVA_TM_T         PACKAGE SSM              ON UNIT   1030 AT TIME STEP     70, STRESS PERIOD      1

 CONCENTRATION WILL BE SAVED ON UNIT 1031 AT END OF TIME STEP   70, STRESS PERIOD    1


  MASS BUDGET FOR ENTIRE MODEL AT END OF TIME STEP   70, STRESS PERIOD   1
  ---------------------------------------------------------------------------------------------------

     CUMULATIVE MASS      M       RATES FOR THIS TIME STEP      M/T          PACKAGE NAME    
     ------------------                 ------------------------                     ----------------

           IN:                                      IN:
           ---                                      ---
     STORAGE-AQUEOUS =       1.0899E-11       STORAGE-AQUEOUS =       3.9597E-24     MST                              
                 WEL =           0.0000                   WEL =           0.0000     SSM_WEL1                         
                 WEL =       7.0000E-02                   WEL =       5.0000E-04     SSM_WEL2                         

            TOTAL IN =       7.0000E-02              TOTAL IN =       5.0000E-04

          OUT:                                     OUT:
          ----                                     ----
     STORAGE-AQUEOUS =       4.5991E-02       STORAGE-AQUEOUS =       1.8632E-04     MST                              
                 WEL =       2.4009E-02                   WEL =       3.1368E-04     SSM_WEL1                         
                 WEL =           0.0000                   WEL =           0.0000     SSM_WEL2                         

           TOTAL OUT =       7.0000E-02             TOTAL OUT =       5.0001E-04

            IN - OUT =      -2.3378E-07              IN - OUT =      -6.6457E-09

 PERCENT DISCREPANCY =          -0.00     PERCENT DISCREPANCY =          -0.00




         TIME SUMMARY AT END OF TIME STEP   70 IN STRESS PERIOD    1
                    SECONDS     MINUTES      HOURS       DAYS        YEARS
                    -----------------------------------------------------------
   TIME STEP LENGTH 1.72800E+05  2880.0      48.000      2.0000     5.47570E-03
 STRESS PERIOD TIME 1.20960E+07 2.01600E+05  3360.0      140.00     0.38330    
         TOTAL TIME 1.20960E+07 2.01600E+05  3360.0      140.00     0.38330    


end timestep


start timestep kper="1" kstp="71" mode="normal"

 UBDSV1 SAVING     FLOW-JA-FACE ON UNIT   1030 AT TIME STEP     71, STRESS PERIOD      1
 UBDSV1 SAVING  STORAGE-AQUEOUS ON UNIT   1030 AT TIME STEP     71, STRESS PERIOD      1
 UBDSV06 SAVING  SOURCE-SINK MIX IN MODEL SVA_TM_T         PACKAGE SVA_TM_T        CONNECTED TO MODEL SVA_TM_T         PACKAGE SSM              ON UNIT   1030 AT TIME STEP     71, STRESS PERIOD      1

 CONCENTRATION WILL BE SAVED ON UNIT 1031 AT END OF TIME STEP   71, STRESS PERIOD    1


  MASS BUDGET FOR ENTIRE MODEL AT END OF TIME STEP   71, STRESS PERIOD   1
  ---------------------------------------------------------------------------------------------------

     CUMULATIVE MASS      M       RATES FOR THIS TIME STEP      M/T          PACKAGE NAME    
     ------------------                 ------------------------                     ----------------

           IN:                                      IN:
           ---                                      ---
     STORAGE-AQUEOUS =       1.0899E-11       STORAGE-AQUEOUS =       3.4462E-24     MST                              
                 WEL =           0.0000                   WEL =           0.0000     SSM_WEL1                         
                 WEL =       7.1000E-02                   WEL =       5.0000E-04     SSM_WEL2                         

            TOTAL IN =       7.1000E-02              TOTAL IN =       5.0000E-04

          OUT:                                     OUT:
          ----                                     ----
     STORAGE-AQUEOUS =       4.6360E-02       STORAGE-AQUEOUS =       1.8419E-04     MST                              
                 WEL =       2.4641E-02                   WEL =       3.1581E-04     SSM_WEL1                         
                 WEL =           0.0000                   WEL =           0.0000     SSM_WEL2                         

           TOTAL OUT =       7.1000E-02             TOTAL OUT =       5.0000E-04

            IN - OUT =      -2.4089E-07              IN - OUT =      -3.5544E-09

 PERCENT DISCREPANCY =          -0.00     PERCENT DISCREPANCY =          -0.00




         TIME SUMMARY AT END OF TIME STEP   71 IN STRESS PERIOD    1
                    SECONDS     MINUTES      HOURS       DAYS        YEARS
                    -----------------------------------------------------------
   TIME STEP LENGTH 1.72800E+05  2880.0      48.000      2.0000     5.47570E-03
 STRESS PERIOD TIME 1.22688E+07 2.04480E+05  3408.0      142.00     0.38877    
         TOTAL TIME 1.22688E+07 2.04480E+05  3408.0      142.00     0.38877    


end timestep


start timestep kper="1" kstp="72" mode="normal"

 UBDSV1 SAVING     FLOW-JA-FACE ON UNIT   1030 AT TIME STEP     72, STRESS PERIOD      1
 UBDSV1 SAVING  STORAGE-AQUEOUS ON UNIT   1030 AT TIME STEP     72, STRESS PERIOD      1
 UBDSV06 SAVING  SOURCE-SINK MIX IN MODEL SVA_TM_T         PACKAGE SVA_TM_T        CONNECTED TO MODEL SVA_TM_T         PACKAGE SSM              ON UNIT   1030 AT TIME STEP     72, STRESS PERIOD      1

 CONCENTRATION WILL BE SAVED ON UNIT 1031 AT END OF TIME STEP   72, STRESS PERIOD    1


  MASS BUDGET FOR ENTIRE MODEL AT END OF TIME STEP   72, STRESS PERIOD   1
  ---------------------------------------------------------------------------------------------------

     CUMULATIVE MASS      M       RATES FOR THIS TIME STEP      M/T          PACKAGE NAME    
     ------------------                 ------------------------                     ----------------

           IN:                                      IN:
           ---                                      ---
     STORAGE-AQUEOUS =       1.0899E-11       STORAGE-AQUEOUS =       2.9016E-24     MST                              
                 WEL =           0.0000                   WEL =           0.0000     SSM_WEL1                         
                 WEL =       7.2000E-02                   WEL =       5.0000E-04     SSM_WEL2                         

            TOTAL IN =       7.2000E-02              TOTAL IN =       5.0000E-04

          OUT:                                     OUT:
          ----                                     ----
     STORAGE-AQUEOUS =       4.6724E-02       STORAGE-AQUEOUS =       1.8211E-04     MST                              
                 WEL =       2.5277E-02                   WEL =       3.1789E-04     SSM_WEL1                         
                 WEL =           0.0000                   WEL =           0.0000     SSM_WEL2                         

           TOTAL OUT =       7.2000E-02             TOTAL OUT =       5.0000E-04

            IN - OUT =      -2.4573E-07              IN - OUT =      -2.4212E-09

 PERCENT DISCREPANCY =          -0.00     PERCENT DISCREPANCY =          -0.00




         TIME SUMMARY AT END OF TIME STEP   72 IN STRESS PERIOD    1
                    SECONDS     MINUTES      HOURS       DAYS        YEARS
                    -----------------------------------------------------------
   TIME STEP LENGTH 1.72800E+05  2880.0      48.000      2.0000     5.47570E-03
 STRESS PERIOD TIME 1.24416E+07 2.07360E+05  3456.0      144.00     0.39425    
         TOTAL TIME 1.24416E+07 2.07360E+05  3456.0      144.00     0.39425    


end timestep


start timestep kper="1" kstp="73" mode="normal"

 UBDSV1 SAVING     FLOW-JA-FACE ON UNIT   1030 AT TIME STEP     73, STRESS PERIOD      1
 UBDSV1 SAVING  STORAGE-AQUEOUS ON UNIT   1030 AT TIME STEP     73, STRESS PERIOD      1
 UBDSV06 SAVING  SOURCE-SINK MIX IN MODEL SVA_TM_T         PACKAGE SVA_TM_T        CONNECTED TO MODEL SVA_TM_T         PACKAGE SSM              ON UNIT   1030 AT TIME STEP     73, STRESS PERIOD      1

 CONCENTRATION WILL BE SAVED ON UNIT 1031 AT END OF TIME STEP   73, STRESS PERIOD    1


  MASS BUDGET FOR ENTIRE MODEL AT END OF TIME STEP   73, STRESS PERIOD   1
  ---------------------------------------------------------------------------------------------------

     CUMULATIVE MASS      M       RATES FOR THIS TIME STEP      M/T          PACKAGE NAME    
     ------------------                 ------------------------                     ----------------

           IN:                                      IN:
           ---                                      ---
     STORAGE-AQUEOUS =       1.0899E-11       STORAGE-AQUEOUS =       2.1782E-24     MST                              
                 WEL =           0.0000                   WEL =           0.0000     SSM_WEL1                         
                 WEL =       7.3000E-02                   WEL =       5.0000E-04     SSM_WEL2                         

            TOTAL IN =       7.3000E-02              TOTAL IN =       5.0000E-04

          OUT:                                     OUT:
          ----                                     ----
     STORAGE-AQUEOUS =       4.7084E-02       STORAGE-AQUEOUS =       1.8008E-04     MST                              
                 WEL =       2.5916E-02                   WEL =       3.1993E-04     SSM_WEL1                         
                 WEL =           0.0000                   WEL =           0.0000     SSM_WEL2                         

           TOTAL OUT =       7.3000E-02             TOTAL OUT =       5.0000E-04

            IN - OUT =      -2.5011E-07              IN - OUT =      -2.1908E-09

 PERCENT DISCREPANCY =          -0.00     PERCENT DISCREPANCY =          -0.00




         TIME SUMMARY AT END OF TIME STEP   73 IN STRESS PERIOD    1
                    SECONDS     MINUTES      HOURS       DAYS        YEARS
                    -----------------------------------------------------------
   TIME STEP LENGTH 1.72800E+05  2880.0      48.000      2.0000     5.47570E-03
 STRESS PERIOD TIME 1.26144E+07 2.10240E+05  3504.0      146.00     0.39973    
         TOTAL TIME 1.26144E+07 2.10240E+05  3504.0      146.00     0.39973    


end timestep


start timestep kper="1" kstp="74" mode="normal"

 UBDSV1 SAVING     FLOW-JA-FACE ON UNIT   1030 AT TIME STEP     74, STRESS PERIOD      1
 UBDSV1 SAVING  STORAGE-AQUEOUS ON UNIT   1030 AT TIME STEP     74, STRESS PERIOD      1
 UBDSV06 SAVING  SOURCE-SINK MIX IN MODEL SVA_TM_T         PACKAGE SVA_TM_T        CONNECTED TO MODEL SVA_TM_T         PACKAGE SSM              ON UNIT   1030 AT TIME STEP     74, STRESS PERIOD      1

 CONCENTRATION WILL BE SAVED ON UNIT 1031 AT END OF TIME STEP   74, STRESS PERIOD    1


  MASS BUDGET FOR ENTIRE MODEL AT END OF TIME STEP   74, STRESS PERIOD   1
  ---------------------------------------------------------------------------------------------------

     CUMULATIVE MASS      M       RATES FOR THIS TIME STEP      M/T          PACKAGE NAME    
     ------------------                 ------------------------                     ----------------

           IN:                                      IN:
           ---                                      ---
     STORAGE-AQUEOUS =       1.0899E-11       STORAGE-AQUEOUS =       1.8742E-24     MST                              
                 WEL =           0.0000                   WEL =           0.0000     SSM_WEL1                         
                 WEL =       7.4000E-02                   WEL =       5.0000E-04     SSM_WEL2                         

            TOTAL IN =       7.4000E-02              TOTAL IN =       5.0000E-04

          OUT:                                     OUT:
          ----                                     ----
     STORAGE-AQUEOUS =       4.7440E-02       STORAGE-AQUEOUS =       1.7808E-04     MST                              
                 WEL =       2.6560E-02                   WEL =       3.2192E-04     SSM_WEL1                         
                 WEL =           0.0000                   WEL =           0.0000     SSM_WEL2                         

           TOTAL OUT =       7.4000E-02             TOTAL OUT =       5.0000E-04

            IN - OUT =      -2.5300E-07              IN - OUT =      -1.4447E-09

 PERCENT DISCREPANCY =          -0.00     PERCENT DISCREPANCY =          -0.00




         TIME SUMMARY AT END OF TIME STEP   74 IN STRESS PERIOD    1
                    SECONDS     MINUTES      HOURS       DAYS        YEARS
                    -----------------------------------------------------------
   TIME STEP LENGTH 1.72800E+05  2880.0      48.000      2.0000     5.47570E-03
 STRESS PERIOD TIME 1.27872E+07 2.13120E+05  3552.0      148.00     0.40520    
         TOTAL TIME 1.27872E+07 2.13120E+05  3552.0      148.00     0.40520    


end timestep


start timestep kper="1" kstp="75" mode="normal"

 UBDSV1 SAVING     FLOW-JA-FACE ON UNIT   1030 AT TIME STEP     75, STRESS PERIOD      1
 UBDSV1 SAVING  STORAGE-AQUEOUS ON UNIT   1030 AT TIME STEP     75, STRESS PERIOD      1
 UBDSV06 SAVING  SOURCE-SINK MIX IN MODEL SVA_TM_T         PACKAGE SVA_TM_T        CONNECTED TO MODEL SVA_TM_T         PACKAGE SSM              ON UNIT   1030 AT TIME STEP     75, STRESS PERIOD      1

 CONCENTRATION WILL BE SAVED ON UNIT 1031 AT END OF TIME STEP   75, STRESS PERIOD    1


  MASS BUDGET FOR ENTIRE MODEL AT END OF TIME STEP   75, STRESS PERIOD   1
  ---------------------------------------------------------------------------------------------------

     CUMULATIVE MASS      M       RATES FOR THIS TIME STEP      M/T          PACKAGE NAME    
     ------------------                 ------------------------                     ----------------

           IN:                                      IN:
           ---                                      ---
     STORAGE-AQUEOUS =       1.0899E-11       STORAGE-AQUEOUS =       1.6007E-24     MST                              
                 WEL =           0.0000                   WEL =           0.0000     SSM_WEL1                         
                 WEL =       7.5000E-02                   WEL =       5.0000E-04     SSM_WEL2                         

            TOTAL IN =       7.5000E-02              TOTAL IN =       5.0000E-04

          OUT:                                     OUT:
          ----                                     ----
     STORAGE-AQUEOUS =       4.7792E-02       STORAGE-AQUEOUS =       1.7614E-04     MST                              
                 WEL =       2.7208E-02                   WEL =       3.2386E-04     SSM_WEL1                         
                 WEL =           0.0000                   WEL =           0.0000     SSM_WEL2                         

           TOTAL OUT =       7.5000E-02             TOTAL OUT =       5.0000E-04

            IN - OUT =      -2.5564E-07              IN - OUT =      -1.3177E-09

 PERCENT DISCREPANCY =          -0.00     PERCENT DISCREPANCY =          -0.00




         TIME SUMMARY AT END OF TIME STEP   75 IN STRESS PERIOD    1
                    SECONDS     MINUTES      HOURS       DAYS        YEARS
                    -----------------------------------------------------------
   TIME STEP LENGTH 1.72800E+05  2880.0      48.000      2.0000     5.47570E-03
 STRESS PERIOD TIME 1.29600E+07 2.16000E+05  3600.0      150.00     0.41068    
         TOTAL TIME 1.29600E+07 2.16000E+05  3600.0      150.00     0.41068    


end timestep


start timestep kper="1" kstp="76" mode="normal"

 UBDSV1 SAVING     FLOW-JA-FACE ON UNIT   1030 AT TIME STEP     76, STRESS PERIOD      1
 UBDSV1 SAVING  STORAGE-AQUEOUS ON UNIT   1030 AT TIME STEP     76, STRESS PERIOD      1
 UBDSV06 SAVING  SOURCE-SINK MIX IN MODEL SVA_TM_T         PACKAGE SVA_TM_T        CONNECTED TO MODEL SVA_TM_T         PACKAGE SSM              ON UNIT   1030 AT TIME STEP     76, STRESS PERIOD      1

 CONCENTRATION WILL BE SAVED ON UNIT 1031 AT END OF TIME STEP   76, STRESS PERIOD    1


  MASS BUDGET FOR ENTIRE MODEL AT END OF TIME STEP   76, STRESS PERIOD   1
  ---------------------------------------------------------------------------------------------------

     CUMULATIVE MASS      M       RATES FOR THIS TIME STEP      M/T          PACKAGE NAME    
     ------------------                 ------------------------                     ----------------

           IN:                                      IN:
           ---                                      ---
     STORAGE-AQUEOUS =       1.0899E-11       STORAGE-AQUEOUS =       1.2502E-24     MST                              
                 WEL =           0.0000                   WEL =           0.0000     SSM_WEL1                         
                 WEL =       7.6000E-02                   WEL =       5.0000E-04     SSM_WEL2                         

            TOTAL IN =       7.6000E-02              TOTAL IN =       5.0000E-04

          OUT:                                     OUT:
          ----                                     ----
     STORAGE-AQUEOUS =       4.8141E-02       STORAGE-AQUEOUS =       1.7423E-04     MST                              
                 WEL =       2.7859E-02                   WEL =       3.2577E-04     SSM_WEL1                         
                 WEL =           0.0000                   WEL =           0.0000     SSM_WEL2                         

           TOTAL OUT =       7.6000E-02             TOTAL OUT =       5.0000E-04

            IN - OUT =      -2.5822E-07              IN - OUT =      -1.2895E-09

 PERCENT DISCREPANCY =          -0.00     PERCENT DISCREPANCY =          -0.00




         TIME SUMMARY AT END OF TIME STEP   76 IN STRESS PERIOD    1
                    SECONDS     MINUTES      HOURS       DAYS        YEARS
                    -----------------------------------------------------------
   TIME STEP LENGTH 1.72800E+05  2880.0      48.000      2.0000     5.47570E-03
 STRESS PERIOD TIME 1.31328E+07 2.18880E+05  3648.0      152.00     0.41615    
         TOTAL TIME 1.31328E+07 2.18880E+05  3648.0      152.00     0.41615    


end timestep


start timestep kper="1" kstp="77" mode="normal"

 UBDSV1 SAVING     FLOW-JA-FACE ON UNIT   1030 AT TIME STEP     77, STRESS PERIOD      1
 UBDSV1 SAVING  STORAGE-AQUEOUS ON UNIT   1030 AT TIME STEP     77, STRESS PERIOD      1
 UBDSV06 SAVING  SOURCE-SINK MIX IN MODEL SVA_TM_T         PACKAGE SVA_TM_T        CONNECTED TO MODEL SVA_TM_T         PACKAGE SSM              ON UNIT   1030 AT TIME STEP     77, STRESS PERIOD      1

 CONCENTRATION WILL BE SAVED ON UNIT 1031 AT END OF TIME STEP   77, STRESS PERIOD    1


  MASS BUDGET FOR ENTIRE MODEL AT END OF TIME STEP   77, STRESS PERIOD   1
  ---------------------------------------------------------------------------------------------------

     CUMULATIVE MASS      M       RATES FOR THIS TIME STEP      M/T          PACKAGE NAME    
     ------------------                 ------------------------                     ----------------

           IN:                                      IN:
           ---                                      ---
     STORAGE-AQUEOUS =       1.0899E-11       STORAGE-AQUEOUS =       9.9817E-25     MST                              
                 WEL =           0.0000                   WEL =           0.0000     SSM_WEL1                         
                 WEL =       7.7000E-02                   WEL =       5.0000E-04     SSM_WEL2                         

            TOTAL IN =       7.7000E-02              TOTAL IN =       5.0000E-04

          OUT:                                     OUT:
          ----                                     ----
     STORAGE-AQUEOUS =       4.8486E-02       STORAGE-AQUEOUS =       1.7237E-04     MST                              
                 WEL =       2.8515E-02                   WEL =       3.2763E-04     SSM_WEL1                         
                 WEL =           0.0000                   WEL =           0.0000     SSM_WEL2                         

           TOTAL OUT =       7.7000E-02             TOTAL OUT =       5.0000E-04

            IN - OUT =      -2.6088E-07              IN - OUT =      -1.3307E-09

 PERCENT DISCREPANCY =          -0.00     PERCENT DISCREPANCY =          -0.00




         TIME SUMMARY AT END OF TIME STEP   77 IN STRESS PERIOD    1
                    SECONDS     MINUTES      HOURS       DAYS        YEARS
                    -----------------------------------------------------------
   TIME STEP LENGTH 1.72800E+05  2880.0      48.000      2.0000     5.47570E-03
 STRESS PERIOD TIME 1.33056E+07 2.21760E+05  3696.0      154.00     0.42163    
         TOTAL TIME 1.33056E+07 2.21760E+05  3696.0      154.00     0.42163    


end timestep


start timestep kper="1" kstp="78" mode="normal"

 UBDSV1 SAVING     FLOW-JA-FACE ON UNIT   1030 AT TIME STEP     78, STRESS PERIOD      1
 UBDSV1 SAVING  STORAGE-AQUEOUS ON UNIT   1030 AT TIME STEP     78, STRESS PERIOD      1
 UBDSV06 SAVING  SOURCE-SINK MIX IN MODEL SVA_TM_T         PACKAGE SVA_TM_T        CONNECTED TO MODEL SVA_TM_T         PACKAGE SSM              ON UNIT   1030 AT TIME STEP     78, STRESS PERIOD      1

 CONCENTRATION WILL BE SAVED ON UNIT 1031 AT END OF TIME STEP   78, STRESS PERIOD    1


  MASS BUDGET FOR ENTIRE MODEL AT END OF TIME STEP   78, STRESS PERIOD   1
  ---------------------------------------------------------------------------------------------------

     CUMULATIVE MASS      M       RATES FOR THIS TIME STEP      M/T          PACKAGE NAME    
     ------------------                 ------------------------                     ----------------

           IN:                                      IN:
           ---                                      ---
     STORAGE-AQUEOUS =       1.0899E-11       STORAGE-AQUEOUS =       8.7064E-25     MST                              
                 WEL =           0.0000                   WEL =           0.0000     SSM_WEL1                         
                 WEL =       7.8000E-02                   WEL =       5.0000E-04     SSM_WEL2                         

            TOTAL IN =       7.8000E-02              TOTAL IN =       5.0000E-04

          OUT:                                     OUT:
          ----                                     ----
     STORAGE-AQUEOUS =       4.8827E-02       STORAGE-AQUEOUS =       1.7056E-04     MST                              
                 WEL =       2.9174E-02                   WEL =       3.2944E-04     SSM_WEL1                         
                 WEL =           0.0000                   WEL =           0.0000     SSM_WEL2                         

           TOTAL OUT =       7.8000E-02             TOTAL OUT =       5.0000E-04

            IN - OUT =      -2.6357E-07              IN - OUT =      -1.3462E-09

 PERCENT DISCREPANCY =          -0.00     PERCENT DISCREPANCY =          -0.00




         TIME SUMMARY AT END OF TIME STEP   78 IN STRESS PERIOD    1
                    SECONDS     MINUTES      HOURS       DAYS        YEARS
                    -----------------------------------------------------------
   TIME STEP LENGTH 1.72800E+05  2880.0      48.000      2.0000     5.47570E-03
 STRESS PERIOD TIME 1.34784E+07 2.24640E+05  3744.0      156.00     0.42710    
         TOTAL TIME 1.34784E+07 2.24640E+05  3744.0      156.00     0.42710    


end timestep


start timestep kper="1" kstp="79" mode="normal"

 UBDSV1 SAVING     FLOW-JA-FACE ON UNIT   1030 AT TIME STEP     79, STRESS PERIOD      1
 UBDSV1 SAVING  STORAGE-AQUEOUS ON UNIT   1030 AT TIME STEP     79, STRESS PERIOD      1
 UBDSV06 SAVING  SOURCE-SINK MIX IN MODEL SVA_TM_T         PACKAGE SVA_TM_T        CONNECTED TO MODEL SVA_TM_T         PACKAGE SSM              ON UNIT   1030 AT TIME STEP     79, STRESS PERIOD      1

 CONCENTRATION WILL BE SAVED ON UNIT 1031 AT END OF TIME STEP   79, STRESS PERIOD    1


  MASS BUDGET FOR ENTIRE MODEL AT END OF TIME STEP   79, STRESS PERIOD   1
  ---------------------------------------------------------------------------------------------------

     CUMULATIVE MASS      M       RATES FOR THIS TIME STEP      M/T          PACKAGE NAME    
     ------------------                 ------------------------                     ----------------

           IN:                                      IN:
           ---                                      ---
     STORAGE-AQUEOUS =       1.0899E-11       STORAGE-AQUEOUS =       7.1685E-25     MST                              
                 WEL =           0.0000                   WEL =           0.0000     SSM_WEL1                         
                 WEL =       7.9000E-02                   WEL =       5.0000E-04     SSM_WEL2                         

            TOTAL IN =       7.9000E-02              TOTAL IN =       5.0000E-04

          OUT:                                     OUT:
          ----                                     ----
     STORAGE-AQUEOUS =       4.9164E-02       STORAGE-AQUEOUS =       1.6880E-04     MST                              
                 WEL =       2.9836E-02                   WEL =       3.3121E-04     SSM_WEL1                         
                 WEL =           0.0000                   WEL =           0.0000     SSM_WEL2                         

           TOTAL OUT =       7.9000E-02             TOTAL OUT =       5.0000E-04

            IN - OUT =      -2.6771E-07              IN - OUT =      -2.0684E-09

 PERCENT DISCREPANCY =          -0.00     PERCENT DISCREPANCY =          -0.00




         TIME SUMMARY AT END OF TIME STEP   79 IN STRESS PERIOD    1
                    SECONDS     MINUTES      HOURS       DAYS        YEARS
                    -----------------------------------------------------------
   TIME STEP LENGTH 1.72800E+05  2880.0      48.000      2.0000     5.47570E-03
 STRESS PERIOD TIME 1.36512E+07 2.27520E+05  3792.0      158.00     0.43258    
         TOTAL TIME 1.36512E+07 2.27520E+05  3792.0      158.00     0.43258    


end timestep


start timestep kper="1" kstp="80" mode="normal"

 UBDSV1 SAVING     FLOW-JA-FACE ON UNIT   1030 AT TIME STEP     80, STRESS PERIOD      1
 UBDSV1 SAVING  STORAGE-AQUEOUS ON UNIT   1030 AT TIME STEP     80, STRESS PERIOD      1
 UBDSV06 SAVING  SOURCE-SINK MIX IN MODEL SVA_TM_T         PACKAGE SVA_TM_T        CONNECTED TO MODEL SVA_TM_T         PACKAGE SSM              ON UNIT   1030 AT TIME STEP     80, STRESS PERIOD      1

 CONCENTRATION WILL BE SAVED ON UNIT 1031 AT END OF TIME STEP   80, STRESS PERIOD    1


  MASS BUDGET FOR ENTIRE MODEL AT END OF TIME STEP   80, STRESS PERIOD   1
  ---------------------------------------------------------------------------------------------------

     CUMULATIVE MASS      M       RATES FOR THIS TIME STEP      M/T          PACKAGE NAME    
     ------------------                 ------------------------                     ----------------

           IN:                                      IN:
           ---                                      ---
     STORAGE-AQUEOUS =       1.0899E-11       STORAGE-AQUEOUS =       5.3625E-25     MST                              
                 WEL =           0.0000                   WEL =           0.0000     SSM_WEL1                         
                 WEL =       8.0000E-02                   WEL =       5.0000E-04     SSM_WEL2                         

            TOTAL IN =       8.0000E-02              TOTAL IN =       5.0000E-04

          OUT:                                     OUT:
          ----                                     ----
     STORAGE-AQUEOUS =       4.9498E-02       STORAGE-AQUEOUS =       1.6707E-04     MST                              
                 WEL =       3.0502E-02                   WEL =       3.3293E-04     SSM_WEL1                         
                 WEL =           0.0000                   WEL =           0.0000     SSM_WEL2                         

           TOTAL OUT =       8.0000E-02             TOTAL OUT =       5.0000E-04

            IN - OUT =      -2.7392E-07              IN - OUT =      -3.1075E-09

 PERCENT DISCREPANCY =          -0.00     PERCENT DISCREPANCY =          -0.00




         TIME SUMMARY AT END OF TIME STEP   80 IN STRESS PERIOD    1
                    SECONDS     MINUTES      HOURS       DAYS        YEARS
                    -----------------------------------------------------------
   TIME STEP LENGTH 1.72800E+05  2880.0      48.000      2.0000     5.47570E-03
 STRESS PERIOD TIME 1.38240E+07 2.30400E+05  3840.0      160.00     0.43806    
         TOTAL TIME 1.38240E+07 2.30400E+05  3840.0      160.00     0.43806    


end timestep


start timestep kper="1" kstp="81" mode="normal"

 UBDSV1 SAVING     FLOW-JA-FACE ON UNIT   1030 AT TIME STEP     81, STRESS PERIOD      1
 UBDSV1 SAVING  STORAGE-AQUEOUS ON UNIT   1030 AT TIME STEP     81, STRESS PERIOD      1
 UBDSV06 SAVING  SOURCE-SINK MIX IN MODEL SVA_TM_T         PACKAGE SVA_TM_T        CONNECTED TO MODEL SVA_TM_T         PACKAGE SSM              ON UNIT   1030 AT TIME STEP     81, STRESS PERIOD      1

 CONCENTRATION WILL BE SAVED ON UNIT 1031 AT END OF TIME STEP   81, STRESS PERIOD    1


  MASS BUDGET FOR ENTIRE MODEL AT END OF TIME STEP   81, STRESS PERIOD   1
  ---------------------------------------------------------------------------------------------------

     CUMULATIVE MASS      M       RATES FOR THIS TIME STEP      M/T          PACKAGE NAME    
     ------------------                 ------------------------                     ----------------

           IN:                                      IN:
           ---                                      ---
     STORAGE-AQUEOUS =       1.0899E-11       STORAGE-AQUEOUS =       4.6126E-25     MST                              
                 WEL =           0.0000                   WEL =           0.0000     SSM_WEL1                         
                 WEL =       8.1000E-02                   WEL =       5.0000E-04     SSM_WEL2                         

            TOTAL IN =       8.1000E-02              TOTAL IN =       5.0000E-04

          OUT:                                     OUT:
          ----                                     ----
     STORAGE-AQUEOUS =       4.9829E-02       STORAGE-AQUEOUS =       1.6539E-04     MST                              
                 WEL =       3.1171E-02                   WEL =       3.3462E-04     SSM_WEL1                         
                 WEL =           0.0000                   WEL =           0.0000     SSM_WEL2                         

           TOTAL OUT =       8.1000E-02             TOTAL OUT =       5.0000E-04

            IN - OUT =      -2.8272E-07              IN - OUT =      -4.3992E-09

 PERCENT DISCREPANCY =          -0.00     PERCENT DISCREPANCY =          -0.00




         TIME SUMMARY AT END OF TIME STEP   81 IN STRESS PERIOD    1
                    SECONDS     MINUTES      HOURS       DAYS        YEARS
                    -----------------------------------------------------------
   TIME STEP LENGTH 1.72800E+05  2880.0      48.000      2.0000     5.47570E-03
 STRESS PERIOD TIME 1.39968E+07 2.33280E+05  3888.0      162.00     0.44353    
         TOTAL TIME 1.39968E+07 2.33280E+05  3888.0      162.00     0.44353    


end timestep


start timestep kper="1" kstp="82" mode="normal"

 UBDSV1 SAVING     FLOW-JA-FACE ON UNIT   1030 AT TIME STEP     82, STRESS PERIOD      1
 UBDSV1 SAVING  STORAGE-AQUEOUS ON UNIT   1030 AT TIME STEP     82, STRESS PERIOD      1
 UBDSV06 SAVING  SOURCE-SINK MIX IN MODEL SVA_TM_T         PACKAGE SVA_TM_T        CONNECTED TO MODEL SVA_TM_T         PACKAGE SSM              ON UNIT   1030 AT TIME STEP     82, STRESS PERIOD      1

 CONCENTRATION WILL BE SAVED ON UNIT 1031 AT END OF TIME STEP   82, STRESS PERIOD    1


  MASS BUDGET FOR ENTIRE MODEL AT END OF TIME STEP   82, STRESS PERIOD   1
  ---------------------------------------------------------------------------------------------------

     CUMULATIVE MASS      M       RATES FOR THIS TIME STEP      M/T          PACKAGE NAME    
     ------------------                 ------------------------                     ----------------

           IN:                                      IN:
           ---                                      ---
     STORAGE-AQUEOUS =       1.0899E-11       STORAGE-AQUEOUS =       3.9246E-25     MST                              
                 WEL =           0.0000                   WEL =           0.0000     SSM_WEL1                         
                 WEL =       8.2000E-02                   WEL =       5.0000E-04     SSM_WEL2                         

            TOTAL IN =       8.2000E-02              TOTAL IN =       5.0000E-04

          OUT:                                     OUT:
          ----                                     ----
     STORAGE-AQUEOUS =       5.0157E-02       STORAGE-AQUEOUS =       1.6374E-04     MST                              
                 WEL =       3.1844E-02                   WEL =       3.3627E-04     SSM_WEL1                         
                 WEL =           0.0000                   WEL =           0.0000     SSM_WEL2                         

           TOTAL OUT =       8.2000E-02             TOTAL OUT =       5.0001E-04

            IN - OUT =      -2.9452E-07              IN - OUT =      -5.9022E-09

 PERCENT DISCREPANCY =          -0.00     PERCENT DISCREPANCY =          -0.00




         TIME SUMMARY AT END OF TIME STEP   82 IN STRESS PERIOD    1
                    SECONDS     MINUTES      HOURS       DAYS        YEARS
                    -----------------------------------------------------------
   TIME STEP LENGTH 1.72800E+05  2880.0      48.000      2.0000     5.47570E-03
 STRESS PERIOD TIME 1.41696E+07 2.36160E+05  3936.0      164.00     0.44901    
         TOTAL TIME 1.41696E+07 2.36160E+05  3936.0      164.00     0.44901    


end timestep


start timestep kper="1" kstp="83" mode="normal"

 UBDSV1 SAVING     FLOW-JA-FACE ON UNIT   1030 AT TIME STEP     83, STRESS PERIOD      1
 UBDSV1 SAVING  STORAGE-AQUEOUS ON UNIT   1030 AT TIME STEP     83, STRESS PERIOD      1
 UBDSV06 SAVING  SOURCE-SINK MIX IN MODEL SVA_TM_T         PACKAGE SVA_TM_T        CONNECTED TO MODEL SVA_TM_T         PACKAGE SSM              ON UNIT   1030 AT TIME STEP     83, STRESS PERIOD      1

 CONCENTRATION WILL BE SAVED ON UNIT 1031 AT END OF TIME STEP   83, STRESS PERIOD    1


  MASS BUDGET FOR ENTIRE MODEL AT END OF TIME STEP   83, STRESS PERIOD   1
  ---------------------------------------------------------------------------------------------------

     CUMULATIVE MASS      M       RATES FOR THIS TIME STEP      M/T          PACKAGE NAME    
     ------------------                 ------------------------                     ----------------

           IN:                                      IN:
           ---                                      ---
     STORAGE-AQUEOUS =       1.0899E-11       STORAGE-AQUEOUS =       3.0053E-25     MST                              
                 WEL =           0.0000                   WEL =           0.0000     SSM_WEL1                         
                 WEL =       8.3000E-02                   WEL =       5.0000E-04     SSM_WEL2                         

            TOTAL IN =       8.3000E-02              TOTAL IN =       5.0000E-04

          OUT:                                     OUT:
          ----                                     ----
     STORAGE-AQUEOUS =       5.0481E-02       STORAGE-AQUEOUS =       1.6213E-04     MST                              
                 WEL =       3.2519E-02                   WEL =       3.3788E-04     SSM_WEL1                         
                 WEL =           0.0000                   WEL =           0.0000     SSM_WEL2                         

           TOTAL OUT =       8.3000E-02             TOTAL OUT =       5.0001E-04

            IN - OUT =      -3.0876E-07              IN - OUT =      -7.1197E-09

 PERCENT DISCREPANCY =          -0.00     PERCENT DISCREPANCY =          -0.00




         TIME SUMMARY AT END OF TIME STEP   83 IN STRESS PERIOD    1
                    SECONDS     MINUTES      HOURS       DAYS        YEARS
                    -----------------------------------------------------------
   TIME STEP LENGTH 1.72800E+05  2880.0      48.000      2.0000     5.47570E-03
 STRESS PERIOD TIME 1.43424E+07 2.39040E+05  3984.0      166.00     0.45448    
         TOTAL TIME 1.43424E+07 2.39040E+05  3984.0      166.00     0.45448    


end timestep


start timestep kper="1" kstp="84" mode="normal"

 UBDSV1 SAVING     FLOW-JA-FACE ON UNIT   1030 AT TIME STEP     84, STRESS PERIOD      1
 UBDSV1 SAVING  STORAGE-AQUEOUS ON UNIT   1030 AT TIME STEP     84, STRESS PERIOD      1
 UBDSV06 SAVING  SOURCE-SINK MIX IN MODEL SVA_TM_T         PACKAGE SVA_TM_T        CONNECTED TO MODEL SVA_TM_T         PACKAGE SSM              ON UNIT   1030 AT TIME STEP     84, STRESS PERIOD      1

 CONCENTRATION WILL BE SAVED ON UNIT 1031 AT END OF TIME STEP   84, STRESS PERIOD    1


  MASS BUDGET FOR ENTIRE MODEL AT END OF TIME STEP   84, STRESS PERIOD   1
  ---------------------------------------------------------------------------------------------------

     CUMULATIVE MASS      M       RATES FOR THIS TIME STEP      M/T          PACKAGE NAME    
     ------------------                 ------------------------                     ----------------

           IN:                                      IN:
           ---                                      ---
     STORAGE-AQUEOUS =       1.0899E-11       STORAGE-AQUEOUS =       2.4527E-25     MST                              
                 WEL =           0.0000                   WEL =           0.0000     SSM_WEL1                         
                 WEL =       8.4000E-02                   WEL =       5.0000E-04     SSM_WEL2                         

            TOTAL IN =       8.4000E-02              TOTAL IN =       5.0000E-04

          OUT:                                     OUT:
          ----                                     ----
     STORAGE-AQUEOUS =       5.0802E-02       STORAGE-AQUEOUS =       1.6056E-04     MST                              
                 WEL =       3.3198E-02                   WEL =       3.3946E-04     SSM_WEL1                         
                 WEL =           0.0000                   WEL =           0.0000     SSM_WEL2                         

           TOTAL OUT =       8.4000E-02             TOTAL OUT =       5.0001E-04

            IN - OUT =      -3.3741E-07              IN - OUT =      -1.4323E-08

 PERCENT DISCREPANCY =          -0.00     PERCENT DISCREPANCY =          -0.00




         TIME SUMMARY AT END OF TIME STEP   84 IN STRESS PERIOD    1
                    SECONDS     MINUTES      HOURS       DAYS        YEARS
                    -----------------------------------------------------------
   TIME STEP LENGTH 1.72800E+05  2880.0      48.000      2.0000     5.47570E-03
 STRESS PERIOD TIME 1.45152E+07 2.41920E+05  4032.0      168.00     0.45996    
         TOTAL TIME 1.45152E+07 2.41920E+05  4032.0      168.00     0.45996    


end timestep


start timestep kper="1" kstp="85" mode="normal"

 UBDSV1 SAVING     FLOW-JA-FACE ON UNIT   1030 AT TIME STEP     85, STRESS PERIOD      1
 UBDSV1 SAVING  STORAGE-AQUEOUS ON UNIT   1030 AT TIME STEP     85, STRESS PERIOD      1
 UBDSV06 SAVING  SOURCE-SINK MIX IN MODEL SVA_TM_T         PACKAGE SVA_TM_T        CONNECTED TO MODEL SVA_TM_T         PACKAGE SSM              ON UNIT   1030 AT TIME STEP     85, STRESS PERIOD      1

 CONCENTRATION WILL BE SAVED ON UNIT 1031 AT END OF TIME STEP   85, STRESS PERIOD    1


  MASS BUDGET FOR ENTIRE MODEL AT END OF TIME STEP   85, STRESS PERIOD   1
  ---------------------------------------------------------------------------------------------------

     CUMULATIVE MASS      M       RATES FOR THIS TIME STEP      M/T          PACKAGE NAME    
     ------------------                 ------------------------                     ----------------

           IN:                                      IN:
           ---                                      ---
     STORAGE-AQUEOUS =       1.0899E-11       STORAGE-AQUEOUS =       2.1048E-25     MST                              
                 WEL =           0.0000                   WEL =           0.0000     SSM_WEL1                         
                 WEL =       8.5000E-02                   WEL =       5.0000E-04     SSM_WEL2                         

            TOTAL IN =       8.5000E-02              TOTAL IN =       5.0000E-04

          OUT:                                     OUT:
          ----                                     ----
     STORAGE-AQUEOUS =       5.1120E-02       STORAGE-AQUEOUS =       1.5902E-04     MST                              
                 WEL =       3.3880E-02                   WEL =       3.4100E-04     SSM_WEL1                         
                 WEL =           0.0000                   WEL =           0.0000     SSM_WEL2                         

           TOTAL OUT =       8.5000E-02             TOTAL OUT =       5.0001E-04

            IN - OUT =      -3.6561E-07              IN - OUT =      -1.4102E-08

 PERCENT DISCREPANCY =          -0.00     PERCENT DISCREPANCY =          -0.00




         TIME SUMMARY AT END OF TIME STEP   85 IN STRESS PERIOD    1
                    SECONDS     MINUTES      HOURS       DAYS        YEARS
                    -----------------------------------------------------------
   TIME STEP LENGTH 1.72800E+05  2880.0      48.000      2.0000     5.47570E-03
 STRESS PERIOD TIME 1.46880E+07 2.44800E+05  4080.0      170.00     0.46543    
         TOTAL TIME 1.46880E+07 2.44800E+05  4080.0      170.00     0.46543    


end timestep


start timestep kper="1" kstp="86" mode="normal"

 UBDSV1 SAVING     FLOW-JA-FACE ON UNIT   1030 AT TIME STEP     86, STRESS PERIOD      1
 UBDSV1 SAVING  STORAGE-AQUEOUS ON UNIT   1030 AT TIME STEP     86, STRESS PERIOD      1
 UBDSV06 SAVING  SOURCE-SINK MIX IN MODEL SVA_TM_T         PACKAGE SVA_TM_T        CONNECTED TO MODEL SVA_TM_T         PACKAGE SSM              ON UNIT   1030 AT TIME STEP     86, STRESS PERIOD      1

 CONCENTRATION WILL BE SAVED ON UNIT 1031 AT END OF TIME STEP   86, STRESS PERIOD    1


  MASS BUDGET FOR ENTIRE MODEL AT END OF TIME STEP   86, STRESS PERIOD   1
  ---------------------------------------------------------------------------------------------------

     CUMULATIVE MASS      M       RATES FOR THIS TIME STEP      M/T          PACKAGE NAME    
     ------------------                 ------------------------                     ----------------

           IN:                                      IN:
           ---                                      ---
     STORAGE-AQUEOUS =       1.0899E-11       STORAGE-AQUEOUS =       1.7248E-25     MST                              
                 WEL =           0.0000                   WEL =           0.0000     SSM_WEL1                         
                 WEL =       8.6000E-02                   WEL =       5.0000E-04     SSM_WEL2                         

            TOTAL IN =       8.6000E-02              TOTAL IN =       5.0000E-04

          OUT:                                     OUT:
          ----                                     ----
     STORAGE-AQUEOUS =       5.1435E-02       STORAGE-AQUEOUS =       1.5751E-04     MST                              
                 WEL =       3.4565E-02                   WEL =       3.4250E-04     SSM_WEL1                         
                 WEL =           0.0000                   WEL =           0.0000     SSM_WEL2                         

           TOTAL OUT =       8.6000E-02             TOTAL OUT =       5.0001E-04

            IN - OUT =      -3.9323E-07              IN - OUT =      -1.3809E-08

 PERCENT DISCREPANCY =          -0.00     PERCENT DISCREPANCY =          -0.00




         TIME SUMMARY AT END OF TIME STEP   86 IN STRESS PERIOD    1
                    SECONDS     MINUTES      HOURS       DAYS        YEARS
                    -----------------------------------------------------------
   TIME STEP LENGTH 1.72800E+05  2880.0      48.000      2.0000     5.47570E-03
 STRESS PERIOD TIME 1.48608E+07 2.47680E+05  4128.0      172.00     0.47091    
         TOTAL TIME 1.48608E+07 2.47680E+05  4128.0      172.00     0.47091    


end timestep


start timestep kper="1" kstp="87" mode="normal"

 UBDSV1 SAVING     FLOW-JA-FACE ON UNIT   1030 AT TIME STEP     87, STRESS PERIOD      1
 UBDSV1 SAVING  STORAGE-AQUEOUS ON UNIT   1030 AT TIME STEP     87, STRESS PERIOD      1
 UBDSV06 SAVING  SOURCE-SINK MIX IN MODEL SVA_TM_T         PACKAGE SVA_TM_T        CONNECTED TO MODEL SVA_TM_T         PACKAGE SSM              ON UNIT   1030 AT TIME STEP     87, STRESS PERIOD      1

 CONCENTRATION WILL BE SAVED ON UNIT 1031 AT END OF TIME STEP   87, STRESS PERIOD    1


  MASS BUDGET FOR ENTIRE MODEL AT END OF TIME STEP   87, STRESS PERIOD   1
  ---------------------------------------------------------------------------------------------------

     CUMULATIVE MASS      M       RATES FOR THIS TIME STEP      M/T          PACKAGE NAME    
     ------------------                 ------------------------                     ----------------

           IN:                                      IN:
           ---                                      ---
     STORAGE-AQUEOUS =       1.0899E-11       STORAGE-AQUEOUS =       1.2988E-25     MST                              
                 WEL =           0.0000                   WEL =           0.0000     SSM_WEL1                         
                 WEL =       8.7000E-02                   WEL =       5.0000E-04     SSM_WEL2                         

            TOTAL IN =       8.7000E-02              TOTAL IN =       5.0000E-04

          OUT:                                     OUT:
          ----                                     ----
     STORAGE-AQUEOUS =       5.1747E-02       STORAGE-AQUEOUS =       1.5604E-04     MST                              
                 WEL =       3.5253E-02                   WEL =       3.4397E-04     SSM_WEL1                         
                 WEL =           0.0000                   WEL =           0.0000     SSM_WEL2                         

           TOTAL OUT =       8.7000E-02             TOTAL OUT =       5.0001E-04

            IN - OUT =      -4.2031E-07              IN - OUT =      -1.3540E-08

 PERCENT DISCREPANCY =          -0.00     PERCENT DISCREPANCY =          -0.00




         TIME SUMMARY AT END OF TIME STEP   87 IN STRESS PERIOD    1
                    SECONDS     MINUTES      HOURS       DAYS        YEARS
                    -----------------------------------------------------------
   TIME STEP LENGTH 1.72800E+05  2880.0      48.000      2.0000     5.47570E-03
 STRESS PERIOD TIME 1.50336E+07 2.50560E+05  4176.0      174.00     0.47639    
         TOTAL TIME 1.50336E+07 2.50560E+05  4176.0      174.00     0.47639    


end timestep


start timestep kper="1" kstp="88" mode="normal"

 UBDSV1 SAVING     FLOW-JA-FACE ON UNIT   1030 AT TIME STEP     88, STRESS PERIOD      1
 UBDSV1 SAVING  STORAGE-AQUEOUS ON UNIT   1030 AT TIME STEP     88, STRESS PERIOD      1
 UBDSV06 SAVING  SOURCE-SINK MIX IN MODEL SVA_TM_T         PACKAGE SVA_TM_T        CONNECTED TO MODEL SVA_TM_T         PACKAGE SSM              ON UNIT   1030 AT TIME STEP     88, STRESS PERIOD      1

 CONCENTRATION WILL BE SAVED ON UNIT 1031 AT END OF TIME STEP   88, STRESS PERIOD    1


  MASS BUDGET FOR ENTIRE MODEL AT END OF TIME STEP   88, STRESS PERIOD   1
  ---------------------------------------------------------------------------------------------------

     CUMULATIVE MASS      M       RATES FOR THIS TIME STEP      M/T          PACKAGE NAME    
     ------------------                 ------------------------                     ----------------

           IN:                                      IN:
           ---                                      ---
     STORAGE-AQUEOUS =       1.0899E-11       STORAGE-AQUEOUS =       1.1135E-25     MST                              
                 WEL =           0.0000                   WEL =           0.0000     SSM_WEL1                         
                 WEL =       8.8000E-02                   WEL =       5.0000E-04     SSM_WEL2                         

            TOTAL IN =       8.8000E-02              TOTAL IN =       5.0000E-04

          OUT:                                     OUT:
          ----                                     ----
     STORAGE-AQUEOUS =       5.2056E-02       STORAGE-AQUEOUS =       1.5460E-04     MST                              
                 WEL =       3.5944E-02                   WEL =       3.4541E-04     SSM_WEL1                         
                 WEL =           0.0000                   WEL =           0.0000     SSM_WEL2                         

           TOTAL OUT =       8.8000E-02             TOTAL OUT =       5.0001E-04

            IN - OUT =      -4.4673E-07              IN - OUT =      -1.3211E-08

 PERCENT DISCREPANCY =          -0.00     PERCENT DISCREPANCY =          -0.00




         TIME SUMMARY AT END OF TIME STEP   88 IN STRESS PERIOD    1
                    SECONDS     MINUTES      HOURS       DAYS        YEARS
                    -----------------------------------------------------------
   TIME STEP LENGTH 1.72800E+05  2880.0      48.000      2.0000     5.47570E-03
 STRESS PERIOD TIME 1.52064E+07 2.53440E+05  4224.0      176.00     0.48186    
         TOTAL TIME 1.52064E+07 2.53440E+05  4224.0      176.00     0.48186    


end timestep


start timestep kper="1" kstp="89" mode="normal"

 UBDSV1 SAVING     FLOW-JA-FACE ON UNIT   1030 AT TIME STEP     89, STRESS PERIOD      1
 UBDSV1 SAVING  STORAGE-AQUEOUS ON UNIT   1030 AT TIME STEP     89, STRESS PERIOD      1
 UBDSV06 SAVING  SOURCE-SINK MIX IN MODEL SVA_TM_T         PACKAGE SVA_TM_T        CONNECTED TO MODEL SVA_TM_T         PACKAGE SSM              ON UNIT   1030 AT TIME STEP     89, STRESS PERIOD      1

 CONCENTRATION WILL BE SAVED ON UNIT 1031 AT END OF TIME STEP   89, STRESS PERIOD    1


  MASS BUDGET FOR ENTIRE MODEL AT END OF TIME STEP   89, STRESS PERIOD   1
  ---------------------------------------------------------------------------------------------------

     CUMULATIVE MASS      M       RATES FOR THIS TIME STEP      M/T          PACKAGE NAME    
     ------------------                 ------------------------                     ----------------

           IN:                                      IN:
           ---                                      ---
     STORAGE-AQUEOUS =       1.0899E-11       STORAGE-AQUEOUS =       9.4044E-26     MST                              
                 WEL =           0.0000                   WEL =           0.0000     SSM_WEL1                         
                 WEL =       8.9000E-02                   WEL =       5.0000E-04     SSM_WEL2                         

            TOTAL IN =       8.9000E-02              TOTAL IN =       5.0000E-04

          OUT:                                     OUT:
          ----                                     ----
     STORAGE-AQUEOUS =       5.2363E-02       STORAGE-AQUEOUS =       1.5320E-04     MST                              
                 WEL =       3.6638E-02                   WEL =       3.4681E-04     SSM_WEL1                         
                 WEL =           0.0000                   WEL =           0.0000     SSM_WEL2                         

           TOTAL OUT =       8.9000E-02             TOTAL OUT =       5.0001E-04

            IN - OUT =      -4.7265E-07              IN - OUT =      -1.2960E-08

 PERCENT DISCREPANCY =          -0.00     PERCENT DISCREPANCY =          -0.00




         TIME SUMMARY AT END OF TIME STEP   89 IN STRESS PERIOD    1
                    SECONDS     MINUTES      HOURS       DAYS        YEARS
                    -----------------------------------------------------------
   TIME STEP LENGTH 1.72800E+05  2880.0      48.000      2.0000     5.47570E-03
 STRESS PERIOD TIME 1.53792E+07 2.56320E+05  4272.0      178.00     0.48734    
         TOTAL TIME 1.53792E+07 2.56320E+05  4272.0      178.00     0.48734    


end timestep


start timestep kper="1" kstp="90" mode="normal"

 UBDSV1 SAVING     FLOW-JA-FACE ON UNIT   1030 AT TIME STEP     90, STRESS PERIOD      1
 UBDSV1 SAVING  STORAGE-AQUEOUS ON UNIT   1030 AT TIME STEP     90, STRESS PERIOD      1
 UBDSV06 SAVING  SOURCE-SINK MIX IN MODEL SVA_TM_T         PACKAGE SVA_TM_T        CONNECTED TO MODEL SVA_TM_T         PACKAGE SSM              ON UNIT   1030 AT TIME STEP     90, STRESS PERIOD      1

 CONCENTRATION WILL BE SAVED ON UNIT 1031 AT END OF TIME STEP   90, STRESS PERIOD    1


  MASS BUDGET FOR ENTIRE MODEL AT END OF TIME STEP   90, STRESS PERIOD   1
  ---------------------------------------------------------------------------------------------------

     CUMULATIVE MASS      M       RATES FOR THIS TIME STEP      M/T          PACKAGE NAME    
     ------------------                 ------------------------                     ----------------

           IN:                                      IN:
           ---                                      ---
     STORAGE-AQUEOUS =       1.0899E-11       STORAGE-AQUEOUS =       7.1189E-26     MST                              
                 WEL =           0.0000                   WEL =           0.0000     SSM_WEL1                         
                 WEL =       9.0000E-02                   WEL =       5.0000E-04     SSM_WEL2                         

            TOTAL IN =       9.0000E-02              TOTAL IN =       5.0000E-04

          OUT:                                     OUT:
          ----                                     ----
     STORAGE-AQUEOUS =       5.2666E-02       STORAGE-AQUEOUS =       1.5183E-04     MST                              
                 WEL =       3.7334E-02                   WEL =       3.4818E-04     SSM_WEL1                         
                 WEL =           0.0000                   WEL =           0.0000     SSM_WEL2                         

           TOTAL OUT =       9.0000E-02             TOTAL OUT =       5.0001E-04

            IN - OUT =      -4.9817E-07              IN - OUT =      -1.2761E-08

 PERCENT DISCREPANCY =          -0.00     PERCENT DISCREPANCY =          -0.00




         TIME SUMMARY AT END OF TIME STEP   90 IN STRESS PERIOD    1
                    SECONDS     MINUTES      HOURS       DAYS        YEARS
                    -----------------------------------------------------------
   TIME STEP LENGTH 1.72800E+05  2880.0      48.000      2.0000     5.47570E-03
 STRESS PERIOD TIME 1.55520E+07 2.59200E+05  4320.0      180.00     0.49281    
         TOTAL TIME 1.55520E+07 2.59200E+05  4320.0      180.00     0.49281    


end timestep


start timestep kper="1" kstp="91" mode="normal"

 UBDSV1 SAVING     FLOW-JA-FACE ON UNIT   1030 AT TIME STEP     91, STRESS PERIOD      1
 UBDSV1 SAVING  STORAGE-AQUEOUS ON UNIT   1030 AT TIME STEP     91, STRESS PERIOD      1
 UBDSV06 SAVING  SOURCE-SINK MIX IN MODEL SVA_TM_T         PACKAGE SVA_TM_T        CONNECTED TO MODEL SVA_TM_T         PACKAGE SSM              ON UNIT   1030 AT TIME STEP     91, STRESS PERIOD      1

 CONCENTRATION WILL BE SAVED ON UNIT 1031 AT END OF TIME STEP   91, STRESS PERIOD    1


  MASS BUDGET FOR ENTIRE MODEL AT END OF TIME STEP   91, STRESS PERIOD   1
  ---------------------------------------------------------------------------------------------------

     CUMULATIVE MASS      M       RATES FOR THIS TIME STEP      M/T          PACKAGE NAME    
     ------------------                 ------------------------                     ----------------

           IN:                                      IN:
           ---                                      ---
     STORAGE-AQUEOUS =       1.0899E-11       STORAGE-AQUEOUS =       5.7784E-26     MST                              
                 WEL =           0.0000                   WEL =           0.0000     SSM_WEL1                         
                 WEL =       9.1000E-02                   WEL =       5.0000E-04     SSM_WEL2                         

            TOTAL IN =       9.1000E-02              TOTAL IN =       5.0000E-04

          OUT:                                     OUT:
          ----                                     ----
     STORAGE-AQUEOUS =       5.2967E-02       STORAGE-AQUEOUS =       1.5049E-04     MST                              
                 WEL =       3.8033E-02                   WEL =       3.4952E-04     SSM_WEL1                         
                 WEL =           0.0000                   WEL =           0.0000     SSM_WEL2                         

           TOTAL OUT =       9.1001E-02             TOTAL OUT =       5.0001E-04

            IN - OUT =      -5.2322E-07              IN - OUT =      -1.2522E-08

 PERCENT DISCREPANCY =          -0.00     PERCENT DISCREPANCY =          -0.00




         TIME SUMMARY AT END OF TIME STEP   91 IN STRESS PERIOD    1
                    SECONDS     MINUTES      HOURS       DAYS        YEARS
                    -----------------------------------------------------------
   TIME STEP LENGTH 1.72800E+05  2880.0      48.000      2.0000     5.47570E-03
 STRESS PERIOD TIME 1.57248E+07 2.62080E+05  4368.0      182.00     0.49829    
         TOTAL TIME 1.57248E+07 2.62080E+05  4368.0      182.00     0.49829    


end timestep


start timestep kper="1" kstp="92" mode="normal"

 UBDSV1 SAVING     FLOW-JA-FACE ON UNIT   1030 AT TIME STEP     92, STRESS PERIOD      1
 UBDSV1 SAVING  STORAGE-AQUEOUS ON UNIT   1030 AT TIME STEP     92, STRESS PERIOD      1
 UBDSV06 SAVING  SOURCE-SINK MIX IN MODEL SVA_TM_T         PACKAGE SVA_TM_T        CONNECTED TO MODEL SVA_TM_T         PACKAGE SSM              ON UNIT   1030 AT TIME STEP     92, STRESS PERIOD      1

 CONCENTRATION WILL BE SAVED ON UNIT 1031 AT END OF TIME STEP   92, STRESS PERIOD    1


  MASS BUDGET FOR ENTIRE MODEL AT END OF TIME STEP   92, STRESS PERIOD   1
  ---------------------------------------------------------------------------------------------------

     CUMULATIVE MASS      M       RATES FOR THIS TIME STEP      M/T          PACKAGE NAME    
     ------------------                 ------------------------                     ----------------

           IN:                                      IN:
           ---                                      ---
     STORAGE-AQUEOUS =       1.0899E-11       STORAGE-AQUEOUS =       4.9238E-26     MST                              
                 WEL =           0.0000                   WEL =           0.0000     SSM_WEL1                         
                 WEL =       9.2000E-02                   WEL =       5.0000E-04     SSM_WEL2                         

            TOTAL IN =       9.2000E-02              TOTAL IN =       5.0000E-04

          OUT:                                     OUT:
          ----                                     ----
     STORAGE-AQUEOUS =       5.3266E-02       STORAGE-AQUEOUS =       1.4918E-04     MST                              
                 WEL =       3.8735E-02                   WEL =       3.5083E-04     SSM_WEL1                         
                 WEL =           0.0000                   WEL =           0.0000     SSM_WEL2                         

           TOTAL OUT =       9.2001E-02             TOTAL OUT =       5.0001E-04

            IN - OUT =      -5.4788E-07              IN - OUT =      -1.2333E-08

 PERCENT DISCREPANCY =          -0.00     PERCENT DISCREPANCY =          -0.00




         TIME SUMMARY AT END OF TIME STEP   92 IN STRESS PERIOD    1
                    SECONDS     MINUTES      HOURS       DAYS        YEARS
                    -----------------------------------------------------------
   TIME STEP LENGTH 1.72800E+05  2880.0      48.000      2.0000     5.47570E-03
 STRESS PERIOD TIME 1.58976E+07 2.64960E+05  4416.0      184.00     0.50376    
         TOTAL TIME 1.58976E+07 2.64960E+05  4416.0      184.00     0.50376    


end timestep


start timestep kper="1" kstp="93" mode="normal"

 UBDSV1 SAVING     FLOW-JA-FACE ON UNIT   1030 AT TIME STEP     93, STRESS PERIOD      1
 UBDSV1 SAVING  STORAGE-AQUEOUS ON UNIT   1030 AT TIME STEP     93, STRESS PERIOD      1
 UBDSV06 SAVING  SOURCE-SINK MIX IN MODEL SVA_TM_T         PACKAGE SVA_TM_T        CONNECTED TO MODEL SVA_TM_T         PACKAGE SSM              ON UNIT   1030 AT TIME STEP     93, STRESS PERIOD      1

 CONCENTRATION WILL BE SAVED ON UNIT 1031 AT END OF TIME STEP   93, STRESS PERIOD    1


  MASS BUDGET FOR ENTIRE MODEL AT END OF TIME STEP   93, STRESS PERIOD   1
  ---------------------------------------------------------------------------------------------------

     CUMULATIVE MASS      M       RATES FOR THIS TIME STEP      M/T          PACKAGE NAME    
     ------------------                 ------------------------                     ----------------

           IN:                                      IN:
           ---                                      ---
     STORAGE-AQUEOUS =       1.0899E-11       STORAGE-AQUEOUS =       4.0254E-26     MST                              
                 WEL =           0.0000                   WEL =           0.0000     SSM_WEL1                         
                 WEL =       9.3000E-02                   WEL =       5.0000E-04     SSM_WEL2                         

            TOTAL IN =       9.3000E-02              TOTAL IN =       5.0000E-04

          OUT:                                     OUT:
          ----                                     ----
     STORAGE-AQUEOUS =       5.3562E-02       STORAGE-AQUEOUS =       1.4791E-04     MST                              
                 WEL =       3.9439E-02                   WEL =       3.5211E-04     SSM_WEL1                         
                 WEL =           0.0000                   WEL =           0.0000     SSM_WEL2                         

           TOTAL OUT =       9.3001E-02             TOTAL OUT =       5.0001E-04

            IN - OUT =      -5.7207E-07              IN - OUT =      -1.2094E-08

 PERCENT DISCREPANCY =          -0.00     PERCENT DISCREPANCY =          -0.00




         TIME SUMMARY AT END OF TIME STEP   93 IN STRESS PERIOD    1
                    SECONDS     MINUTES      HOURS       DAYS        YEARS
                    -----------------------------------------------------------
   TIME STEP LENGTH 1.72800E+05  2880.0      48.000      2.0000     5.47570E-03
 STRESS PERIOD TIME 1.60704E+07 2.67840E+05  4464.0      186.00     0.50924    
         TOTAL TIME 1.60704E+07 2.67840E+05  4464.0      186.00     0.50924    


end timestep


start timestep kper="1" kstp="94" mode="normal"

 UBDSV1 SAVING     FLOW-JA-FACE ON UNIT   1030 AT TIME STEP     94, STRESS PERIOD      1
 UBDSV1 SAVING  STORAGE-AQUEOUS ON UNIT   1030 AT TIME STEP     94, STRESS PERIOD      1
 UBDSV06 SAVING  SOURCE-SINK MIX IN MODEL SVA_TM_T         PACKAGE SVA_TM_T        CONNECTED TO MODEL SVA_TM_T         PACKAGE SSM              ON UNIT   1030 AT TIME STEP     94, STRESS PERIOD      1

 CONCENTRATION WILL BE SAVED ON UNIT 1031 AT END OF TIME STEP   94, STRESS PERIOD    1


  MASS BUDGET FOR ENTIRE MODEL AT END OF TIME STEP   94, STRESS PERIOD   1
  ---------------------------------------------------------------------------------------------------

     CUMULATIVE MASS      M       RATES FOR THIS TIME STEP      M/T          PACKAGE NAME    
     ------------------                 ------------------------                     ----------------

           IN:                                      IN:
           ---                                      ---
     STORAGE-AQUEOUS =       1.0899E-11       STORAGE-AQUEOUS =       2.8991E-26     MST                              
                 WEL =           0.0000                   WEL =           0.0000     SSM_WEL1                         
                 WEL =       9.4000E-02                   WEL =       5.0000E-04     SSM_WEL2                         

            TOTAL IN =       9.4000E-02              TOTAL IN =       5.0000E-04

          OUT:                                     OUT:
          ----                                     ----
     STORAGE-AQUEOUS =       5.3855E-02       STORAGE-AQUEOUS =       1.4666E-04     MST                              
                 WEL =       4.0146E-02                   WEL =       3.5335E-04     SSM_WEL1                         
                 WEL =           0.0000                   WEL =           0.0000     SSM_WEL2                         

           TOTAL OUT =       9.4001E-02             TOTAL OUT =       5.0001E-04

            IN - OUT =      -5.9590E-07              IN - OUT =      -1.1915E-08

 PERCENT DISCREPANCY =          -0.00     PERCENT DISCREPANCY =          -0.00




         TIME SUMMARY AT END OF TIME STEP   94 IN STRESS PERIOD    1
                    SECONDS     MINUTES      HOURS       DAYS        YEARS
                    -----------------------------------------------------------
   TIME STEP LENGTH 1.72800E+05  2880.0      48.000      2.0000     5.47570E-03
 STRESS PERIOD TIME 1.62432E+07 2.70720E+05  4512.0      188.00     0.51472    
         TOTAL TIME 1.62432E+07 2.70720E+05  4512.0      188.00     0.51472    


end timestep


start timestep kper="1" kstp="95" mode="normal"

 UBDSV1 SAVING     FLOW-JA-FACE ON UNIT   1030 AT TIME STEP     95, STRESS PERIOD      1
 UBDSV1 SAVING  STORAGE-AQUEOUS ON UNIT   1030 AT TIME STEP     95, STRESS PERIOD      1
 UBDSV06 SAVING  SOURCE-SINK MIX IN MODEL SVA_TM_T         PACKAGE SVA_TM_T        CONNECTED TO MODEL SVA_TM_T         PACKAGE SSM              ON UNIT   1030 AT TIME STEP     95, STRESS PERIOD      1

 CONCENTRATION WILL BE SAVED ON UNIT 1031 AT END OF TIME STEP   95, STRESS PERIOD    1


  MASS BUDGET FOR ENTIRE MODEL AT END OF TIME STEP   95, STRESS PERIOD   1
  ---------------------------------------------------------------------------------------------------

     CUMULATIVE MASS      M       RATES FOR THIS TIME STEP      M/T          PACKAGE NAME    
     ------------------                 ------------------------                     ----------------

           IN:                                      IN:
           ---                                      ---
     STORAGE-AQUEOUS =       1.0899E-11       STORAGE-AQUEOUS =       2.4697E-26     MST                              
                 WEL =           0.0000                   WEL =           0.0000     SSM_WEL1                         
                 WEL =       9.5000E-02                   WEL =       5.0000E-04     SSM_WEL2                         

            TOTAL IN =       9.5000E-02              TOTAL IN =       5.0000E-04

          OUT:                                     OUT:
          ----                                     ----
     STORAGE-AQUEOUS =       5.4146E-02       STORAGE-AQUEOUS =       1.4544E-04     MST                              
                 WEL =       4.0855E-02                   WEL =       3.5457E-04     SSM_WEL1                         
                 WEL =           0.0000                   WEL =           0.0000     SSM_WEL2                         

           TOTAL OUT =       9.5001E-02             TOTAL OUT =       5.0001E-04

            IN - OUT =      -6.1938E-07              IN - OUT =      -1.1739E-08

 PERCENT DISCREPANCY =          -0.00     PERCENT DISCREPANCY =          -0.00




         TIME SUMMARY AT END OF TIME STEP   95 IN STRESS PERIOD    1
                    SECONDS     MINUTES      HOURS       DAYS        YEARS
                    -----------------------------------------------------------
   TIME STEP LENGTH 1.72800E+05  2880.0      48.000      2.0000     5.47570E-03
 STRESS PERIOD TIME 1.64160E+07 2.73600E+05  4560.0      190.00     0.52019    
         TOTAL TIME 1.64160E+07 2.73600E+05  4560.0      190.00     0.52019    


end timestep


start timestep kper="1" kstp="96" mode="normal"

 UBDSV1 SAVING     FLOW-JA-FACE ON UNIT   1030 AT TIME STEP     96, STRESS PERIOD      1
 UBDSV1 SAVING  STORAGE-AQUEOUS ON UNIT   1030 AT TIME STEP     96, STRESS PERIOD      1
 UBDSV06 SAVING  SOURCE-SINK MIX IN MODEL SVA_TM_T         PACKAGE SVA_TM_T        CONNECTED TO MODEL SVA_TM_T         PACKAGE SSM              ON UNIT   1030 AT TIME STEP     96, STRESS PERIOD      1

 CONCENTRATION WILL BE SAVED ON UNIT 1031 AT END OF TIME STEP   96, STRESS PERIOD    1


  MASS BUDGET FOR ENTIRE MODEL AT END OF TIME STEP   96, STRESS PERIOD   1
  ---------------------------------------------------------------------------------------------------

     CUMULATIVE MASS      M       RATES FOR THIS TIME STEP      M/T          PACKAGE NAME    
     ------------------                 ------------------------                     ----------------

           IN:                                      IN:
           ---                                      ---
     STORAGE-AQUEOUS =       1.0899E-11       STORAGE-AQUEOUS =       2.0692E-26     MST                              
                 WEL =           0.0000                   WEL =           0.0000     SSM_WEL1                         
                 WEL =       9.6000E-02                   WEL =       5.0000E-04     SSM_WEL2                         

            TOTAL IN =       9.6000E-02              TOTAL IN =       5.0000E-04

          OUT:                                     OUT:
          ----                                     ----
     STORAGE-AQUEOUS =       5.4434E-02       STORAGE-AQUEOUS =       1.4425E-04     MST                              
                 WEL =       4.1566E-02                   WEL =       3.5576E-04     SSM_WEL1                         
                 WEL =           0.0000                   WEL =           0.0000     SSM_WEL2                         

           TOTAL OUT =       9.6001E-02             TOTAL OUT =       5.0001E-04

            IN - OUT =      -6.4260E-07              IN - OUT =      -1.1607E-08

 PERCENT DISCREPANCY =          -0.00     PERCENT DISCREPANCY =          -0.00




         TIME SUMMARY AT END OF TIME STEP   96 IN STRESS PERIOD    1
                    SECONDS     MINUTES      HOURS       DAYS        YEARS
                    -----------------------------------------------------------
   TIME STEP LENGTH 1.72800E+05  2880.0      48.000      2.0000     5.47570E-03
 STRESS PERIOD TIME 1.65888E+07 2.76480E+05  4608.0      192.00     0.52567    
         TOTAL TIME 1.65888E+07 2.76480E+05  4608.0      192.00     0.52567    


end timestep


start timestep kper="1" kstp="97" mode="normal"

 UBDSV1 SAVING     FLOW-JA-FACE ON UNIT   1030 AT TIME STEP     97, STRESS PERIOD      1
 UBDSV1 SAVING  STORAGE-AQUEOUS ON UNIT   1030 AT TIME STEP     97, STRESS PERIOD      1
 UBDSV06 SAVING  SOURCE-SINK MIX IN MODEL SVA_TM_T         PACKAGE SVA_TM_T        CONNECTED TO MODEL SVA_TM_T         PACKAGE SSM              ON UNIT   1030 AT TIME STEP     97, STRESS PERIOD      1

 CONCENTRATION WILL BE SAVED ON UNIT 1031 AT END OF TIME STEP   97, STRESS PERIOD    1


  MASS BUDGET FOR ENTIRE MODEL AT END OF TIME STEP   97, STRESS PERIOD   1
  ---------------------------------------------------------------------------------------------------

     CUMULATIVE MASS      M       RATES FOR THIS TIME STEP      M/T          PACKAGE NAME    
     ------------------                 ------------------------                     ----------------

           IN:                                      IN:
           ---                                      ---
     STORAGE-AQUEOUS =       1.0899E-11       STORAGE-AQUEOUS =       1.5188E-26     MST                              
                 WEL =           0.0000                   WEL =           0.0000     SSM_WEL1                         
                 WEL =       9.7000E-02                   WEL =       5.0000E-04     SSM_WEL2                         

            TOTAL IN =       9.7000E-02              TOTAL IN =       5.0000E-04

          OUT:                                     OUT:
          ----                                     ----
     STORAGE-AQUEOUS =       5.4720E-02       STORAGE-AQUEOUS =       1.4308E-04     MST                              
                 WEL =       4.2280E-02                   WEL =       3.5692E-04     SSM_WEL1                         
                 WEL =           0.0000                   WEL =           0.0000     SSM_WEL2                         

           TOTAL OUT =       9.7001E-02             TOTAL OUT =       5.0001E-04

            IN - OUT =      -6.5513E-07              IN - OUT =      -6.2683E-09

 PERCENT DISCREPANCY =          -0.00     PERCENT DISCREPANCY =          -0.00




         TIME SUMMARY AT END OF TIME STEP   97 IN STRESS PERIOD    1
                    SECONDS     MINUTES      HOURS       DAYS        YEARS
                    -----------------------------------------------------------
   TIME STEP LENGTH 1.72800E+05  2880.0      48.000      2.0000     5.47570E-03
 STRESS PERIOD TIME 1.67616E+07 2.79360E+05  4656.0      194.00     0.53114    
         TOTAL TIME 1.67616E+07 2.79360E+05  4656.0      194.00     0.53114    


end timestep


start timestep kper="1" kstp="98" mode="normal"

 UBDSV1 SAVING     FLOW-JA-FACE ON UNIT   1030 AT TIME STEP     98, STRESS PERIOD      1
 UBDSV1 SAVING  STORAGE-AQUEOUS ON UNIT   1030 AT TIME STEP     98, STRESS PERIOD      1
 UBDSV06 SAVING  SOURCE-SINK MIX IN MODEL SVA_TM_T         PACKAGE SVA_TM_T        CONNECTED TO MODEL SVA_TM_T         PACKAGE SSM              ON UNIT   1030 AT TIME STEP     98, STRESS PERIOD      1

 CONCENTRATION WILL BE SAVED ON UNIT 1031 AT END OF TIME STEP   98, STRESS PERIOD    1


  MASS BUDGET FOR ENTIRE MODEL AT END OF TIME STEP   98, STRESS PERIOD   1
  ---------------------------------------------------------------------------------------------------

     CUMULATIVE MASS      M       RATES FOR THIS TIME STEP      M/T          PACKAGE NAME    
     ------------------                 ------------------------                     ----------------

           IN:                                      IN:
           ---                                      ---
     STORAGE-AQUEOUS =       1.0899E-11       STORAGE-AQUEOUS =       1.1208E-26     MST                              
                 WEL =           0.0000                   WEL =           0.0000     SSM_WEL1                         
                 WEL =       9.8000E-02                   WEL =       5.0000E-04     SSM_WEL2                         

            TOTAL IN =       9.8000E-02              TOTAL IN =       5.0000E-04

          OUT:                                     OUT:
          ----                                     ----
     STORAGE-AQUEOUS =       5.5004E-02       STORAGE-AQUEOUS =       1.4194E-04     MST                              
                 WEL =       4.2996E-02                   WEL =       3.5806E-04     SSM_WEL1                         
                 WEL =           0.0000                   WEL =           0.0000     SSM_WEL2                         

           TOTAL OUT =       9.8001E-02             TOTAL OUT =       5.0000E-04

            IN - OUT =      -6.6448E-07              IN - OUT =      -4.6761E-09

 PERCENT DISCREPANCY =          -0.00     PERCENT DISCREPANCY =          -0.00




         TIME SUMMARY AT END OF TIME STEP   98 IN STRESS PERIOD    1
                    SECONDS     MINUTES      HOURS       DAYS        YEARS
                    -----------------------------------------------------------
   TIME STEP LENGTH 1.72800E+05  2880.0      48.000      2.0000     5.47570E-03
 STRESS PERIOD TIME 1.69344E+07 2.82240E+05  4704.0      196.00     0.53662    
         TOTAL TIME 1.69344E+07 2.82240E+05  4704.0      196.00     0.53662    


end timestep


start timestep kper="1" kstp="99" mode="normal"

 UBDSV1 SAVING     FLOW-JA-FACE ON UNIT   1030 AT TIME STEP     99, STRESS PERIOD      1
 UBDSV1 SAVING  STORAGE-AQUEOUS ON UNIT   1030 AT TIME STEP     99, STRESS PERIOD      1
 UBDSV06 SAVING  SOURCE-SINK MIX IN MODEL SVA_TM_T         PACKAGE SVA_TM_T        CONNECTED TO MODEL SVA_TM_T         PACKAGE SSM              ON UNIT   1030 AT TIME STEP     99, STRESS PERIOD      1

 CONCENTRATION WILL BE SAVED ON UNIT 1031 AT END OF TIME STEP   99, STRESS PERIOD    1


  MASS BUDGET FOR ENTIRE MODEL AT END OF TIME STEP   99, STRESS PERIOD   1
  ---------------------------------------------------------------------------------------------------

     CUMULATIVE MASS      M       RATES FOR THIS TIME STEP      M/T          PACKAGE NAME    
     ------------------                 ------------------------                     ----------------

           IN:                                      IN:
           ---                                      ---
     STORAGE-AQUEOUS =       1.0899E-11       STORAGE-AQUEOUS =       9.7484E-27     MST                              
                 WEL =           0.0000                   WEL =           0.0000     SSM_WEL1                         
                 WEL =       9.9000E-02                   WEL =       5.0000E-04     SSM_WEL2                         

            TOTAL IN =       9.9000E-02              TOTAL IN =       5.0000E-04

          OUT:                                     OUT:
          ----                                     ----
     STORAGE-AQUEOUS =       5.5286E-02       STORAGE-AQUEOUS =       1.4083E-04     MST                              
                 WEL =       4.3715E-02                   WEL =       3.5917E-04     SSM_WEL1                         
                 WEL =           0.0000                   WEL =           0.0000     SSM_WEL2                         

           TOTAL OUT =       9.9001E-02             TOTAL OUT =       5.0000E-04

            IN - OUT =      -6.7049E-07              IN - OUT =      -3.0044E-09

 PERCENT DISCREPANCY =          -0.00     PERCENT DISCREPANCY =          -0.00




         TIME SUMMARY AT END OF TIME STEP   99 IN STRESS PERIOD    1
                    SECONDS     MINUTES      HOURS       DAYS        YEARS
                    -----------------------------------------------------------
   TIME STEP LENGTH 1.72800E+05  2880.0      48.000      2.0000     5.47570E-03
 STRESS PERIOD TIME 1.71072E+07 2.85120E+05  4752.0      198.00     0.54209    
         TOTAL TIME 1.71072E+07 2.85120E+05  4752.0      198.00     0.54209    


end timestep


start timestep kper="1" kstp="100" mode="normal"

 UBDSV1 SAVING     FLOW-JA-FACE ON UNIT   1030 AT TIME STEP    100, STRESS PERIOD      1
 UBDSV1 SAVING  STORAGE-AQUEOUS ON UNIT   1030 AT TIME STEP    100, STRESS PERIOD      1
 UBDSV06 SAVING  SOURCE-SINK MIX IN MODEL SVA_TM_T         PACKAGE SVA_TM_T        CONNECTED TO MODEL SVA_TM_T         PACKAGE SSM              ON UNIT   1030 AT TIME STEP    100, STRESS PERIOD      1
1
  CONCENTRATION IN LAYER   1 AT END OF TIME STEP 100 IN STRESS PERIOD    1
  ---------------------------------------------------------------------------

                1               2               3               4               5               6               7               8               9              10
               11              12              13              14              15              16              17              18              19              20
               21              22              23              24              25              26              27              28              29              30
               31              32              33              34              35              36              37              38              39              40
               41              42              43              44              45              46              47              48              49              50
 ................................................................................................................................................................
   1     5.949501E-45    5.849725E-42    2.985630E-39    1.012367E-36    2.593161E-34    5.356448E-32    9.260884E-30    1.366149E-27    1.724167E-25    1.834062E-23
         1.596174E-21    1.110105E-19    6.601571E-18    2.389985E-15    1.562985E-12    1.404572E-09    6.752605E-07    4.010912E-05    5.049633E-04    3.690907E-03
         9.474651E-03    9.066026E-03    6.233347E-03    3.086756E-03    1.231419E-03    4.154921E-04    1.167993E-04    2.697322E-05    5.143452E-06    8.209598E-07
         1.104244E-07    1.240371E-08    1.140517E-09    8.321413E-11    4.670526E-12    2.055090E-13    7.766549E-15    2.931449E-16    2.682418E-17    2.562038E-18
         1.752732E-19    8.897888E-21    3.413492E-22    1.009227E-23    2.334530E-25    4.244459E-27    5.990144E-29    6.294181E-31    4.426610E-33    1.657634E-35
   2     6.079264E-44    7.304709E-41    4.531892E-38    1.845740E-35    5.585721E-33    1.333198E-30    2.592986E-28    4.189665E-26    5.676026E-24    6.396032E-22
         5.718503E-20    3.565188E-18    5.461940E-16    1.982380E-13    8.668545E-11    5.650157E-08    2.518410E-05    1.442437E-03    1.422110E-02    3.058914E-02
         6.760617E-02    6.491000E-02    4.733234E-02    2.586123E-02    1.156141E-02    4.185772E-03    1.187745E-03    2.621338E-04    4.602307E-05    6.628845E-06
         7.972604E-07    7.985862E-08    6.586356E-09    4.422958E-10    2.534103E-11    1.484009E-12    1.189697E-13    1.054012E-14    5.705066E-16    2.800989E-17
         1.850019E-18    7.508714E-20    2.043069E-21    3.989577E-23    5.841600E-25    6.566792E-27    5.678236E-29    3.663290E-31    1.599342E-33    3.807341E-36
   3     8.814272E-43    1.238158E-39    9.120163E-37    4.399147E-34    1.551290E-31    4.218216E-29    9.090700E-27    1.578453E-24    2.237431E-22    2.615218E-20
         2.511731E-18    2.095344E-16    6.037098E-14    1.651959E-11    4.701201E-09    1.677490E-06    3.709978E-04    1.738172E-02    0.115157        0.221092    
         0.246400        0.234133        0.176068        0.102526        4.675201E-02    1.576864E-02    3.697964E-03    6.211067E-04    8.009512E-05    8.739983E-06
         8.904860E-07    9.389347E-08    1.120985E-08    1.624809E-09    2.488713E-10    3.681852E-11    6.141534E-12    7.788176E-13    4.912194E-14    2.358699E-15
         6.917630E-17    2.614713E-18    5.637407E-20    7.984343E-22    7.980331E-24    5.866247E-26    3.218506E-28    1.292343E-30    3.510288E-33    5.312354E-36
   4     1.903954E-41    2.875610E-38    2.332040E-35    1.249411E-32    4.850046E-30    1.424231E-27    3.228112E-25    5.715272E-23    8.020334E-21    9.089692E-19
         8.368701E-17    2.692663E-14    7.206089E-12    1.526952E-09    2.836149E-07    4.849275E-05    4.092060E-03    9.396238E-02    0.352440        0.536289    
         0.617738        0.554139        0.426801        0.255728        0.112982        3.190641E-02    4.893454E-03    4.559364E-04    5.409554E-05    1.760762E-05
         5.242958E-06    1.208365E-06    2.265662E-07    4.367921E-08    7.186727E-09    1.167995E-09    2.464880E-10    3.667207E-11    2.705073E-12    2.058576E-13
         8.111651E-15    1.839385E-16    2.611201E-18    2.417108E-20    1.543439E-22    7.096667E-25    2.405889E-27    5.990243E-30    1.040118E-32    1.064244E-35
   5     5.256889E-40    7.681005E-37    6.284021E-34    3.466864E-31    1.390306E-28    4.169834E-26    9.380285E-24    1.570645E-21    1.971152E-19    1.961239E-17
         7.912858E-15    2.782878E-12    6.887054E-10    1.101945E-07    1.253354E-05    9.770226E-04    3.316344E-02    0.285290        0.631148        0.791753    
         0.840135        0.849279        0.713734        0.472447        0.223679        5.630015E-02    4.867705E-03    6.767952E-04    3.766436E-03    2.024686E-03
         3.598528E-04    4.285611E-05    5.764328E-06    1.091331E-06    1.594780E-07    2.826936E-08    7.414575E-09    1.242109E-09    1.275030E-10    7.633244E-12
         2.591820E-13    5.001416E-15    5.653761E-17    3.959374E-19    1.782704E-21    5.458911E-24    1.189922E-26    1.891855E-29    2.156376E-32    1.553263E-35
   6     4.968843E-38    5.090355E-35    3.253104E-32    1.513423E-29    5.383864E-27    1.477949E-24    3.054386E-22    4.451287E-20    4.155974E-18    1.307401E-15
         5.674104E-13    1.814431E-10    3.624610E-08    4.300708E-06    3.032650E-04    1.055556E-02    0.148402        0.548269        0.831263        0.925873    
         0.948974        0.954058        0.895931        0.703447        0.405707        9.568822E-02    1.328636E-02    1.196653E-02    0.188967        8.285091E-02
         9.964976E-03    9.597316E-04    1.282538E-04    2.417942E-05    2.694712E-06    7.431207E-07    1.663238E-07    2.644332E-08    2.677219E-09    1.583887E-10
         5.174254E-12    9.106856E-14    8.679355E-16    4.675690E-18    1.472889E-20    2.901071E-23    3.838107E-26    3.639317E-29    2.563926E-32    1.271611E-35
   7     2.016616E-35    1.726573E-32    8.888387E-30    3.264383E-27    8.981447E-25    1.847835E-22    2.762471E-20    2.903687E-18    3.266719E-16    8.985778E-14
         3.026730E-11    7.084777E-09    9.614301E-07    7.338668E-05    3.077031E-03    6.169060E-02    0.368592        0.768432        0.934671        0.976993    
         0.986534        0.988432        0.980483        0.896299        0.645896        0.197412        0.112111        0.458423        0.669307        0.457180    
         0.147750        2.159195E-02    2.765525E-03    4.541882E-04    4.682071E-05    1.258100E-05    2.747566E-06    4.334578E-07    4.420556E-08    2.632688E-09
         8.444850E-11    1.384592E-12    1.132698E-14    4.661720E-17    9.825155E-20    1.105916E-22    7.301302E-26    3.259530E-29    1.163294E-32    3.652755E-36
   8     8.672785E-33    7.621189E-30    3.942367E-27    1.421225E-24    3.719009E-22    6.822036E-20    7.488118E-18    8.898437E-16    8.561762E-14    7.843572E-12
         1.482245E-09    2.377755E-07    2.146519E-05    1.002177E-03    2.261955E-02    0.202899        0.634013        0.897679        0.977596        0.993703    
         0.996901        0.997517        0.997196        0.981742        0.855356        0.360229        0.621377        0.932366        0.917496        0.806290    
         0.533579        0.179202        3.604156E-02    6.362043E-03    6.561459E-04    1.694580E-04    3.589186E-05    5.607268E-06    5.771660E-07    3.482471E-08
         1.107439E-09    1.705580E-11    1.191841E-13    3.559040E-16    4.207928E-19    1.641905E-22    3.258239E-26    5.636130E-30    9.972480E-34    2.131526E-37
   9     2.401100E-30    2.155100E-27    1.141677E-24    4.252645E-22    1.186320E-19    2.532988E-17    4.156228E-15    4.017919E-13    2.478596E-11    8.586526E-10
         5.998340E-08    6.092209E-06    3.664617E-04    1.001583E-02    0.109453        0.448661        0.817587        0.959626        0.992810        0.998412    
         0.999362        0.999539        0.999580        0.998258        0.981957        0.812591        0.963736        0.992710        0.984400        0.948811    
         0.829943        0.539319        0.211068        5.409968E-02    6.682625E-03    1.684582E-03    3.490357E-04    5.435937E-05    5.683040E-06    3.496325E-07
         1.107477E-08    1.595173E-10    9.169148E-13    1.699988E-15    7.294320E-19    2.123300E-22    4.684369E-26    8.664602E-30    1.500828E-33    2.822248E-37
  10     2.540948E-28    1.800957E-25    7.420350E-23    2.150647E-20    4.692749E-18    7.852220E-16    5.929383E-13    5.414635E-11    2.977442E-09    1.036834E-07
         2.015913E-06    9.748038E-05    3.765480E-03    5.609363E-02    0.301511        0.692261        0.920889        0.986015        0.997741        0.999601    
         0.999875        0.999917        0.999907        0.999784        0.999036        0.992740        0.998341        0.999062        0.997027        0.987892    
         0.948181        0.815437        0.515565        0.215337        4.142456E-02    1.072237E-02    2.259792E-03    3.616055E-04    3.916579E-05    2.480088E-06
         7.799679E-08    1.020442E-09    4.282794E-12    3.360307E-15    1.654459E-18    5.811525E-22    1.596536E-25    3.594960E-29    7.010588E-33    1.376069E-36
  11     1.121725E-26    4.929327E-24    1.167230E-21    1.887435E-19    2.438627E-17    1.781453E-14    9.708653E-12    3.388202E-09    1.480015E-07    4.389125E-06
         7.986249E-05    8.623631E-04    2.015256E-02    0.168630        0.523140        0.842794        0.967070        0.994769        0.999286        0.999889    
         0.999973        0.999983        0.999975        0.999944        0.999808        0.999084        0.999794        0.999835        0.999372        0.996894    
         0.984274        0.932538        0.758494        0.453697        0.175593        3.186554E-02    8.137977E-03    1.483981E-03    1.745711E-04    1.147983E-05
         3.481879E-07    3.762532E-09    6.615354E-12    6.058554E-15    3.771996E-18    1.819336E-21    7.175379E-25    2.262116E-28    5.494862E-32    1.181340E-35
  12     8.593671E-25    3.711070E-22    9.140330E-20    1.544957E-17    1.932380E-15    1.023013E-12    3.690054E-10    8.151036E-08    2.728655E-06    6.319133E-05
         9.245401E-04    8.380021E-03    4.888123E-02    0.311368        0.692231        0.919617        0.986060        0.997899        0.999724        0.999964    
         0.999993        0.999996        0.999994        0.999988        0.999968        0.999897        0.999973        0.999961        0.999812        0.998964    
         0.994858        0.973556        0.886302        0.660736        0.274378        9.625817E-02    2.557574E-02    4.773238E-03    5.596596E-04    3.563794E-05
         9.032798E-07    4.823910E-09    8.924731E-12    1.058702E-14    9.514063E-18    7.253080E-21    4.695616E-24    2.375680E-27    8.109051E-31    2.035235E-34
  13     3.305796E-23    1.051573E-20    1.858024E-18    2.262415E-16    1.415423E-13    6.536691E-11    1.835342E-08    6.716619E-07    1.784018E-05    3.176548E-04
         3.641181E-03    2.629837E-02    0.121344        0.376487        0.787631        0.954273        0.992795        0.998974        0.999867        0.999983    
         0.999997        0.999999        0.999999        0.999998        0.999995        0.999989        0.999995        0.999984        0.999907        0.999496    
         0.997576        0.987282        0.942055        0.791957        0.411711        0.173818        5.243588E-02    9.540971E-03    9.582284E-04    4.090075E-05
         4.248749E-07    2.018884E-09    5.053719E-12    8.935029E-15    1.318557E-17    1.724328E-20    1.926394E-23    1.667819E-26    9.139544E-30    3.131397E-33
  14     1.620205E-21    5.489944E-19    9.950443E-17    1.170804E-14    9.783364E-13    3.823154E-10    8.618475E-08    2.537633E-06    5.407182E-05    7.798242E-04
         7.389837E-03    4.521616E-02    0.178823        0.461580        0.803006        0.969924        0.995913        0.999463        0.999929        0.999991    
         0.999999         1.00000         1.00000         1.00000        0.999999        0.999999        0.999998        0.999989        0.999935        0.999695    
         0.998337        0.992073        0.965718        0.866201        0.525179        0.223974        5.126079E-02    6.760851E-03    5.536704E-04    1.942539E-05
         1.915632E-07    1.094626E-09    4.373984E-12    1.369017E-14    3.659731E-17    8.479275E-20    1.611669E-22    2.347393E-25    2.241551E-28    1.338566E-31
  15     3.211755E-21    1.067629E-18    2.172286E-16    3.169296E-14    3.487092E-12    3.332274E-10    3.501712E-08    1.642544E-06    4.192409E-05    6.514474E-04
         6.368544E-03    3.982226E-02    0.161944        0.435549        0.784611        0.962632        0.997329        0.999711        0.999957        0.999993    
         0.999999         1.00000         1.00000         1.00000         1.00000         1.00000        0.999999        0.999992        0.999948        0.999640    
         0.998138        0.992721        0.974735        0.907007        0.583642        0.175970        3.576461E-02    3.810159E-03    2.515782E-04    8.693808E-06
         1.573114E-07    1.751651E-09    1.406633E-11    8.737067E-14    4.322816E-16    1.714421E-18    5.376807E-21    1.297286E-23    2.736098E-26    4.766758E-29
  16     3.337753E-22    6.347053E-20    5.779793E-18    7.277142E-16    1.303282E-13    2.377280E-11    3.572445E-09    3.134580E-07    1.331418E-05    2.898707E-04
         3.472345E-03    2.462515E-02    0.110548        0.348904        0.698638        0.914814        0.992754        0.999583        0.999938        0.999990    
         0.999998         1.00000         1.00000         1.00000         1.00000         1.00000        0.999999        0.999993        0.999935        0.999534    
         0.997526        0.990788        0.975938        0.930196        0.529015        0.111388        2.272982E-02    3.092016E-03    2.719835E-04    1.429198E-05
         4.812247E-07    1.106179E-08    1.816398E-10    2.123271E-12    1.809599E-14    1.180784E-16    6.116926E-19    2.405549E-21    6.245327E-24    9.882590E-27
  17     2.398879E-22    4.727518E-20    4.595498E-18    3.379112E-16    3.101396E-14    3.658939E-12    4.762054E-10    4.724850E-08    2.755055E-06    8.230020E-05
         1.267940E-03    1.077204E-02    5.583141E-02    0.226439        0.502933        0.683311        0.913484        0.999385        0.999892        0.999983    
         0.999997         1.00000         1.00000         1.00000         1.00000         1.00000        0.999999        0.999992        0.999906        0.999228    
         0.995400        0.980345        0.940130        0.845328        0.312621        3.105870E-02    6.453727E-03    1.066054E-03    1.285501E-04    1.076095E-05
         6.609920E-07    2.919629E-08    8.936496E-10    1.853407E-11    2.607983E-13    2.527666E-15    1.697205E-17    7.753465E-20    1.980297E-22    2.689247E-25
  18     1.148106E-20    2.899282E-18    3.975721E-16    3.585695E-14    2.208960E-12    9.466796E-11    2.821986E-09    5.755350E-08    1.284567E-06    2.604376E-05
         3.841454E-04    3.569310E-03    2.087293E-02    9.611147E-02    0.165701        0.661069        0.988016        0.998795        0.999791        0.999965    
         0.999993        0.999997        0.999998        0.999999        0.999999        0.999999        0.999994        0.999960        0.999699        0.997936    
         0.988145        0.947947        0.837056        0.611697        8.000564E-02    2.788900E-03    3.352054E-04    4.441659E-05    5.184075E-06    4.795591E-07
         3.358615E-08    1.721694E-09    6.245843E-11    1.558050E-12    2.644840E-14    3.060308E-16    2.467649E-18    1.287733E-20    3.532646E-23    5.152652E-26
  19     1.932339E-19    5.109634E-17    7.196698E-15    6.448602E-13    3.858289E-11    1.578853E-09    4.457632E-08    8.759888E-07    1.228232E-05    1.274883E-04
         1.020852E-03    6.466810E-03    3.280193E-02    0.267588        0.732913        0.928209        0.984945        0.997159        0.999450        0.999881    
         0.999960        0.999979        0.999985        0.999989        0.999991        0.999988        0.999943        0.999665        0.998050        0.989429    
         0.952956        0.838238        0.605242        0.317307        4.090295E-02    6.592984E-04    3.058395E-05    2.358949E-06    2.065671E-07    1.714332E-08
         1.206855E-09    6.628664E-11    2.664152E-12    7.518163E-14    1.457047E-15    1.962042E-17    1.868345E-19    1.098330E-21    3.349249E-24    5.594133E-27
  20     9.405094E-19    2.751895E-16    4.136401E-14    3.769233E-12    2.228651E-10    8.776620E-09    2.324215E-07    4.171364E-06    5.192179E-05    4.653329E-04
         3.146427E-03    1.679736E-02    7.284878E-02    0.382875        0.719379        0.894949        0.966236        0.991312        0.997738        0.999277    
         0.999691        0.999825        0.999880        0.999905        0.999914        0.999861        0.999469        0.997295        0.986109        0.940670    
         0.799968        0.522294        0.227348        6.671884E-02    9.836145E-03    1.788479E-04    3.118910E-06    1.433998E-07    1.007649E-08    7.688594E-10
         5.295767E-11    2.958670E-12    1.246142E-13    3.803844E-15    8.242055E-17    1.374315E-18    1.503477E-20    1.011363E-22    3.532732E-25    6.953950E-28
  21     7.720277E-20    1.289369E-17    2.674315E-15    6.511693E-13    1.016040E-10    6.996056E-09    2.341063E-07    4.585862E-06    5.769470E-05    4.971571E-04
         3.136520E-03    1.559428E-02    6.210026E-02    0.247289        0.478518        0.697738        0.865161        0.948336        0.981680        0.993209    
         0.997112        0.998513        0.999130        0.999478        0.999373        0.998799        0.995719        0.981121        0.917430        0.720336    
         0.375006        0.100992        1.729626E-02    3.283311E-03    6.668478E-04    2.671498E-05    7.574644E-07    1.103519E-08    5.165064E-10    3.605589E-11
         2.439479E-12    1.370634E-13    5.962017E-15    1.939707E-16    5.418749E-18    1.034586E-19    1.317142E-21    1.039588E-23    4.311663E-26    1.030346E-28
  22     5.618267E-21    7.989037E-19    4.397082E-17    1.696180E-14    5.536933E-12    8.397061E-10    5.506119E-08    1.688205E-06    2.764501E-05    2.730423E-04
         1.808717E-03    8.719584E-03    3.205970E-02    9.715109E-02    0.181556        0.304329        0.493903        0.705025        0.858101        0.938745    
         0.976809        0.989071        0.994108        0.996399        0.996927        0.993225        0.972389        0.900948        0.648064        0.245827    
         3.082777E-02    2.124792E-03    2.879423E-04    7.218118E-05    2.130086E-05    1.540982E-06    1.137695E-07    2.871674E-09    3.360131E-11    1.656546E-12
         1.077154E-13    6.083671E-15    2.729223E-16    1.123795E-17    3.557707E-19    7.804836E-21    1.168276E-22    1.103987E-24    5.581762E-27    1.653765E-29
  23     4.496410E-22    7.593841E-20    5.654389E-18    1.257959E-15    4.345456E-13    7.990561E-11    7.279200E-09    3.186728E-07    6.956873E-06    8.277111E-05
         5.975615E-04    2.866935E-03    9.641579E-03    2.355828E-02    4.655725E-02    5.961815E-02    0.102028        0.201842        0.413624        0.660325    
         0.846122        0.924165        0.959412        0.976898        0.986058        0.974342        0.878385        0.638874        0.236619        2.165704E-02
         2.319559E-04    2.186333E-05    4.877659E-06    1.442567E-06    4.675002E-07    6.553877E-08    6.603745E-09    3.558376E-10    7.119964E-12    8.273572E-14
         4.306871E-15    2.427763E-16    1.331546E-17    6.301636E-19    2.147162E-20    5.347756E-22    9.394337E-24    1.069589E-25    6.678372E-28    2.502945E-30
  24     6.366097E-23    2.198330E-20    3.435961E-18    5.189648E-16    1.002891E-13    1.373632E-11    1.127596E-09    5.160268E-08    1.264066E-06    1.683077E-05
         1.286347E-04    6.006745E-04    1.773032E-03    3.357270E-03    5.472656E-03    7.868257E-03    7.570615E-03    1.203516E-02    3.419966E-02    0.150046    
         0.390469        0.621012        0.781700        0.877860        0.937103        0.917310        0.676242        0.296612        3.425083E-02    2.719800E-03
         9.414071E-04    2.305659E-04    3.027268E-05    2.223335E-06    1.093890E-07    4.660410E-09    2.326073E-10    1.131363E-11    3.500761E-13    6.086587E-15
         1.598027E-16    9.950116E-18    6.112706E-19    2.977842E-20    1.110655E-21    3.133729E-23    6.444818E-25    8.934389E-27    7.365965E-29    5.587166E-31
  25     1.288676E-23    7.009667E-21    1.404674E-18    1.348754E-16    2.179023E-14    2.476356E-12    1.790570E-10    7.679524E-09    1.884839E-07    2.582080E-06
         1.982801E-05    8.670498E-05    2.152426E-04    3.017312E-04    3.461031E-04    3.201140E-04    3.109205E-04    6.440477E-05    4.388492E-04    3.811067E-03
         2.834981E-02    0.120181        0.289597        0.495594        0.774866        0.770595        0.400621        0.125147        8.817572E-02    6.581728E-02
         2.509244E-02    5.750169E-03    8.574266E-04    7.189955E-05    3.448538E-06    1.091555E-07    2.455741E-09    4.080798E-11    4.916280E-13    3.977852E-15
         3.883674E-17    1.306611E-18    5.276317E-20    2.307199E-21    9.107250E-23    3.092276E-24    8.965257E-26    2.269761E-27    5.538166E-29    1.983029E-30
  26     2.217509E-24    1.663898E-21    3.482093E-19    2.669757E-17    3.245971E-15    3.350336E-13    2.264621E-11    9.364863E-10    2.247785E-08    3.060383E-07
         2.289164E-06    9.161258E-06    1.891419E-05    1.968802E-05    1.543061E-05    7.868233E-06    1.132850E-05    2.395645E-05    9.888221E-04    1.030834E-02
         3.884456E-02    0.100684        0.190248        0.356222        0.526009        0.750553        0.681487        0.655414        0.560302        0.382500    
         0.187909        6.372756E-02    1.401646E-02    1.592629E-03    9.013381E-05    3.052040E-06    6.961094E-08    1.144703E-09    1.384390E-11    1.158319E-13
         5.975477E-16    7.231797E-18    1.703585E-19    5.055584E-21    1.619280E-22    5.617832E-24    2.076088E-25    7.703830E-27    2.757164E-28    1.188867E-29
  27     3.108717E-25    2.203323E-22    7.501763E-20    6.222090E-18    3.441179E-16    3.212034E-14    2.026716E-12    8.322551E-11    2.024548E-09    2.755595E-08
         2.006872E-07    7.395782E-07    1.320203E-06    1.124962E-06    6.676380E-07    3.050392E-06    6.642923E-05    1.449380E-03    2.392903E-02    0.115931    
         0.274397        0.482216        0.691547        0.846643        0.932074        0.978927        0.964546        0.931063        0.862745        0.737488    
         0.531593        0.298427        0.114158        2.227645E-02    1.815721E-03    7.343502E-05    1.855510E-06    3.123389E-08    3.737061E-10    3.142355E-12
         1.650220E-14    6.782376E-17    1.253285E-18    2.599726E-20    6.234382E-22    1.959611E-23    7.712236E-25    3.222266E-26    1.292210E-27    5.795852E-29
  28     3.449402E-26    2.198939E-23    7.417664E-21    9.431427E-19    4.229420E-17    2.220847E-15    1.323721E-13    5.397703E-12    1.380685E-10    1.905484E-09
         1.321656E-08    4.500585E-08    7.420634E-08    7.578281E-08    7.209582E-07    5.152300E-05    2.496874E-03    2.965125E-02    0.178638        0.436928    
         0.652183        0.808375        0.913892        0.969852        0.988291        0.994851        0.991534        0.983047        0.964064        0.922136    
         0.825595        0.661527        0.417848        0.157298        2.399664E-02    1.461346E-03    4.419665E-05    8.359405E-07    1.088886E-08    9.872020E-11
         5.871043E-13    1.979286E-15    1.371714E-17    1.783009E-19    2.801892E-21    7.725747E-23    3.084450E-24    1.309805E-25    5.332402E-27    2.343538E-28
  29     1.487013E-25    2.853829E-23    3.182382E-21    2.306061E-19    1.025155E-17    2.570179E-16    1.023119E-14    3.432999E-13    7.470829E-12    8.659472E-11
         4.889289E-10    2.176722E-09    1.391563E-08    2.053511E-07    6.161551E-06    4.931406E-04    3.032256E-02    0.206929        0.522579        0.760764    
         0.893282        0.952404        0.981526        0.994253        0.998032        0.998903        0.998125        0.996369        0.992437        0.982853    
         0.957301        0.902859        0.773773        0.492707        0.165910        2.030418E-02    9.071006E-04    2.062699E-05    2.978759E-07    2.961162E-09
         1.997338E-11    7.942967E-14    1.941686E-16    1.704737E-18    1.524914E-20    3.609655E-22    1.343434E-23    5.204868E-25    1.983564E-26    8.141267E-28
  30     1.350163E-23    1.755233E-21    1.138202E-19    3.675026E-18    7.978587E-17    1.543790E-15    2.615857E-14    3.812086E-13    5.203322E-12    6.420874E-11
         7.620112E-10    9.254352E-09    1.249182E-07    1.981568E-06    4.189384E-05    1.694567E-03    0.106111        0.565309        0.824378        0.934057    
         0.974968        0.991193        0.996909        0.999069        0.999691        0.999806        0.999654        0.999356        0.998726        0.997089    
         0.993105        0.983524        0.948731        0.839121        0.541161        0.155415        1.338181E-02    4.099706E-04    6.784228E-06    7.433884E-08
         5.691640E-10    2.827425E-12    7.001974E-15    2.232564E-17    1.028309E-19    2.035464E-21    6.300820E-23    2.023851E-24    6.781531E-26    2.505342E-27
  31     3.735560E-21    2.894189E-19    1.040411E-17    1.889692E-16    3.301426E-15    4.607109E-14    5.678362E-13    6.517504E-12    7.140031E-11    7.606067E-10
         8.047537E-09    8.676772E-08    9.810032E-07    1.209621E-05    1.759887E-04    3.812987E-03    0.207375        0.812624        0.953111        0.985869    
         0.995373        0.998500        0.999535        0.999871        0.999959        0.999978        0.999952        0.999909        0.999827        0.999644    
         0.999274        0.998174        0.994876        0.982027        0.909495        0.555597        0.103383        4.608992E-03    8.692628E-05    1.056916E-06
         9.243555E-09    5.692746E-11    1.998010E-13    2.980609E-16    7.958864E-19    1.359190E-20    3.118986E-22    7.671030E-24    2.155692E-25    6.985815E-27
  32     1.063209E-19    7.692051E-18    2.709864E-16    5.594957E-15    7.731700E-14    8.381611E-13    7.976531E-12    7.280525E-11    6.756591E-10    6.416112E-09
         6.087185E-08    5.802051E-07    5.608151E-06    5.572524E-05    5.878236E-04    7.454204E-03    0.263654        0.905537        0.981377        0.994689    
         0.998434        0.999593        0.999908        0.999980        0.999995        0.999999        0.999996        0.999991        0.999982        0.999965    
         0.999933        0.999844        0.999499        0.997585        0.979801        0.595592        5.729030E-02    1.432084E-03    2.488802E-05    3.405153E-07
         3.639060E-09    2.938009E-11    1.598842E-13    4.317000E-16    4.790888E-18    1.047846E-19    1.596397E-21    2.803302E-23    6.386725E-25    1.790418E-26
  33     1.121569E-19    8.700100E-18    3.907437E-16    9.981928E-15    1.790814E-13    2.572636E-12    3.161447E-11    3.490205E-10    3.572478E-09    3.467725E-08
         3.245218E-07    2.955469E-06    2.617722E-05    2.236791E-04    1.808295E-03    1.341474E-02    0.325449        0.915911        0.972023        0.990775    
         0.997352        0.999395        0.999899        0.999990        0.999999         1.00000         1.00000        0.999999        0.999998        0.999996    
         0.999986        0.999926        0.999483        0.996456        0.959788        0.629156        9.332723E-02    3.183144E-03    5.966902E-05    9.642634E-07
         1.291290E-08    1.357897E-10    1.067338E-12    5.480779E-15    4.604295E-17    9.401138E-19    8.205762E-21    9.631942E-23    1.751015E-24    4.249741E-26
  34     9.819464E-21    7.589477E-19    2.839402E-17    7.657534E-16    1.629857E-14    2.974775E-13    4.773098E-12    6.785953E-11    8.672216E-10    1.012207E-08
         1.091597E-07    1.077299E-06    9.872389E-06    8.614449E-05    7.560996E-04    7.662452E-03    0.277101        0.833594        0.932562        0.976755    
         0.993524        0.998612        0.999779        0.999973        0.999997         1.00000        0.999999        0.999999        0.999997        0.999995    
         0.999984        0.999921        0.999538        0.997478        0.984334        0.744397        0.210258        3.518368E-02    1.401981E-03    2.932777E-05
         4.441725E-07    5.136584E-09    4.506320E-11    2.673313E-13    7.418594E-16    8.013652E-18    3.914741E-20    2.936248E-22    4.369074E-24    9.376877E-26
  35     7.716094E-22    6.044188E-20    2.293105E-18    4.431164E-17    8.370434E-16    1.279694E-14    1.733282E-13    2.263812E-12    3.001658E-11    3.973946E-10
         5.187650E-09    6.745219E-08    8.939618E-07    1.245860E-05    1.985840E-04    5.596111E-03    0.213512        0.596671        0.803448        0.925506    
         0.978715        0.995601        0.999350        0.999917        0.999992        0.999999        0.999998        0.999997        0.999995        0.999990    
         0.999968        0.999796        0.998553        0.990575        0.944716        0.705299        0.228462        2.046185E-02    6.796866E-04    1.359928E-05
         1.987382E-07    2.241308E-09    1.983037E-11    1.319185E-13    4.896788E-16    7.446322E-18    7.400269E-20    6.898801E-22    9.768525E-24    1.847825E-25
  36     6.010818E-23    4.724611E-21    1.822578E-19    3.480025E-18    4.351464E-17    5.195900E-16    4.812881E-15    4.075824E-14    3.883281E-13    4.539600E-12
         6.015800E-11    8.644151E-10    1.375029E-08    2.592412E-07    7.428986E-06    7.938504E-04    3.457643E-02    0.164241        0.433158        0.724991    
         0.908565        0.979457        0.996417        0.999575        0.999969        0.999996        0.999997        0.999995        0.999993        0.999981    
         0.999884        0.999139        0.993921        0.958260        0.814058        0.431395        7.666294E-02    4.029578E-03    1.003036E-04    1.692471E-06
         2.189535E-08    2.277318E-10    1.944460E-12    1.356921E-14    6.903843E-17    1.603858E-18    3.044238E-20    5.388565E-22    1.065197E-23    2.125849E-25
  37     4.686572E-24    3.652405E-22    1.429801E-20    2.735442E-19    3.115828E-18    2.420074E-17    1.446995E-16    6.900528E-16    3.574835E-15    2.720725E-14
         3.071190E-13    4.520691E-12    8.432646E-11    2.192112E-09    1.434047E-07    2.465581E-05    6.551998E-04    3.890732E-03    2.872186E-02    0.169249    
         0.516700        0.846418        0.974359        0.997696        0.999886        0.999990        0.999995        0.999993        0.999989        0.999933    
         0.999007        0.989049        0.923188        0.678171        0.260574        3.567878E-02    1.921160E-03    5.771428E-05    1.191641E-06    1.876907E-08
         2.382771E-10    2.502881E-12    2.196080E-14    1.666983E-16    5.537676E-18    1.798313E-19    5.477278E-21    1.589497E-22    4.550568E-24    1.108277E-25
  38     3.601895E-25    2.766205E-23    1.091412E-21    2.085115E-20    2.169380E-19    1.353118E-18    5.267841E-18    1.296521E-17    3.284850E-17    1.305103E-16
         1.017679E-15    1.379071E-14    2.952856E-13    1.055060E-11    1.060673E-09    1.140221E-07    2.299197E-06    1.700386E-05    2.963895E-04    6.811549E-03
         9.739583E-02    0.487239        0.885554        0.991693        0.999612        0.999955        0.999991        0.999988        0.999972        0.999744    
         0.995090        0.940352        0.665111        0.208421        2.093657E-02    8.676954E-04    2.274201E-05    4.653550E-07    7.871329E-09    1.125955E-10
         1.372851E-12    1.442540E-14    1.332559E-16    5.312167E-18    2.316156E-19    1.132242E-20    5.614500E-22    2.621316E-23    1.088486E-24    3.329671E-26
  39     2.180520E-26    1.887181E-24    7.880967E-23    1.508632E-21    1.427583E-20    7.083991E-20    1.823219E-19    2.610155E-19    3.248880E-19    6.318788E-19
         2.844392E-18    3.032423E-17    6.265262E-16    1.987098E-14    1.421987E-12    1.030506E-10    2.274052E-09    3.604875E-08    1.883045E-06    1.258729E-04
         6.780404E-03    0.139607        0.667422        0.973541        0.998307        0.999694        0.999972        0.999960        0.999871        0.998998    
         0.981224        0.809876        0.316558        3.378555E-02    9.787093E-04    1.683526E-05    2.435434E-07    3.282154E-09    4.212074E-11    5.080804E-13
         5.713412E-15    6.407379E-17    3.754039E-18    1.745059E-19    8.908165E-21    5.627605E-22    4.136416E-23    2.949423E-24    1.735421E-25    6.642258E-27
  40    -2.308483E-26   -5.035416E-25   -3.012394E-25    8.261316E-23    8.464722E-22    3.399628E-21    5.898968E-21    4.967873E-21    3.134405E-21    2.996366E-21
         7.191569E-21    4.869949E-20    6.316180E-19    1.016621E-17    5.083394E-16    4.678003E-14    2.088494E-12    8.804891E-11    1.295948E-08    2.073940E-06
         2.735376E-04    1.921322E-02    0.330735        0.916578        0.990217        0.997715        0.999852        0.999817        0.999393        0.996266    
         0.941786        0.592279        0.113890        5.309562E-03    9.302162E-05    1.015060E-06    7.068089E-09    4.688087E-11    3.280262E-13    2.610914E-15
         2.895363E-17    1.923995E-18    1.100026E-19    5.040820E-21    2.756964E-22    2.183289E-23    2.310347E-24    2.434913E-25    1.979695E-26    9.353263E-28
  41    -1.132271E-25   -2.635625E-24   -2.370231E-23   -9.405108E-23   -1.571826E-22   -5.793265E-23    7.868037E-23    6.879842E-23    2.782189E-23    1.369270E-23
         1.596624E-23    5.100448E-23    2.608682E-22    6.268993E-21    5.199029E-19    2.695925E-17    2.816777E-15    4.885876E-13    1.543896E-10    4.428259E-08
         1.031775E-05    1.510907E-03    9.992687E-02    0.741114        0.931830        0.969117        0.998693        0.999102        0.997395        0.987279    
         0.853642        0.359240        3.809207E-02    1.209430E-03    1.856722E-05    1.924590E-07    1.578523E-09    6.301399E-12    2.313287E-14    8.971380E-17
         2.450752E-18    8.954625E-20    3.404638E-21    1.448879E-22    8.496806E-24    8.001027E-25    1.123281E-25    1.643990E-26    1.760089E-27    9.862170E-29
  42    -4.289009E-25   -9.090958E-24   -7.640363E-23   -3.024304E-22   -5.884881E-22   -5.236517E-22   -1.339887E-22    7.180292E-23    5.044161E-23    1.235059E-23
         1.737244E-24    1.880031E-25    3.758892E-25    4.870958E-23    5.610934E-21    4.249338E-19    2.761554E-17    1.201685E-14    5.133805E-12    1.871764E-09
         5.629136E-07    1.226987E-04    1.716051E-02    0.353827        0.433063        0.844336        0.989306        0.995741        0.990355        0.961494    
         0.703075        0.188175        1.351045E-02    3.736187E-04    5.882289E-06    6.731563E-08    6.456992E-10    5.875613E-12    1.792398E-14    5.349884E-17
         1.015354E-18    2.434062E-20    7.434831E-22    2.956929E-23    1.642539E-24    1.660090E-25    3.018557E-26    5.088608E-27    5.120851E-28    2.251320E-29
  43    -1.375124E-24   -2.712525E-23   -2.094190E-22   -7.293125E-22   -9.739676E-22    6.571320E-22    3.579613E-21    4.408989E-21    2.699968E-21    9.913031E-22
         2.570387E-22    5.040118E-23    6.423146E-24    3.654203E-24    3.912077E-22    3.792898E-20    2.704082E-18    4.715177E-16    2.231441E-13    9.059439E-11
         3.074265E-08    8.069766E-06    1.458322E-03    5.923650E-02    6.823640E-02    0.726523        0.958890        0.982333        0.969329        0.899459    
         0.509326        9.093672E-02    5.265640E-03    1.430768E-04    2.424509E-06    3.042387E-08    3.144259E-10    2.886124E-12    7.935212E-15    2.352198E-17
         4.881497E-19    1.347049E-20    4.867177E-22    2.571800E-23    3.220405E-24    8.137037E-25    1.826785E-25    2.667441E-26    2.147990E-27    7.278198E-29
  44    -3.698165E-24   -6.864885E-23   -4.670939E-22   -1.067606E-21    2.188440E-21    1.852406E-20    4.804978E-20    6.895447E-20    6.256925E-20    3.996234E-20
         2.054653E-20    9.352288E-21    4.071963E-21    1.046095E-21    2.684409E-22    7.790491E-21    5.141886E-19    3.446267E-17    1.211407E-14    4.417856E-12
         1.431394E-09    3.770101E-07    6.737284E-05    3.800628E-03    2.966330E-02    0.430994        0.861565        0.939385        0.916216        0.777813    
         0.319835        4.186043E-02    2.165014E-03    5.960570E-05    1.056505E-06    1.348041E-08    1.332593E-10    1.080730E-12    3.083043E-15    1.152548E-17
         3.254415E-19    1.233365E-20    7.127712E-22    1.043538E-22    2.929987E-23    7.511254E-24    1.373439E-24    1.624848E-25    1.090192E-26    3.199896E-28
  45    -8.115052E-24   -1.396875E-22   -6.983981E-22    1.484264E-21    2.940925E-20    1.406504E-19    3.806577E-19    6.843445E-19    8.923269E-19    9.404115E-19
         8.675316E-19    8.576991E-19    9.973782E-19    9.500869E-19    6.119630E-19    2.866624E-19    8.322433E-19    1.755904E-17    3.442897E-15    5.937179E-13
         1.162734E-10    2.230965E-08    3.470069E-06    3.261478E-04    1.120929E-02    0.189503        0.663405        0.833097        0.803789        0.589916    
         0.172725        1.793102E-02    8.583734E-04    2.353826E-05    4.211190E-07    5.415369E-09    5.578659E-11    5.395595E-13    2.112095E-15    1.247460E-17
         5.552452E-19    3.615118E-20    4.768581E-21    1.172103E-21    3.045254E-22    6.296413E-23    9.332503E-24    9.134976E-25    5.182741E-26    1.324347E-27
  46    -1.390496E-23   -2.039926E-22    2.392037E-23    1.848980E-20    1.629054E-19    7.455369E-19    2.235660E-18    4.895727E-18    8.543987E-18    1.394945E-17
         1.922958E-17    4.125542E-17    1.023371E-16    2.312646E-16    4.349028E-16    6.049244E-16    5.350178E-16    1.670912E-15    5.356970E-14    7.480844E-12
         1.224054E-09    1.705293E-07    4.362054E-06    1.621338E-04    4.593911E-03    7.516642E-02    0.401172        0.638663        0.613906        0.366952    
         7.744365E-02    6.643073E-03    2.956668E-04    8.107723E-06    1.565862E-07    2.485446E-09    4.091983E-11    2.537468E-13    1.653028E-15    1.876080E-17
         1.673280E-18    2.332037E-19    4.935847E-20    1.200504E-20    2.620244E-21    4.505893E-22    5.630971E-23    4.708975E-24    2.312415E-25    5.217427E-27
  47    -1.742690E-23   -1.427326E-22    4.129960E-21    8.040257E-20    6.392831E-19    3.060374E-18    1.022437E-17    2.619178E-17    5.593322E-17    1.480442E-16
         7.104215E-16    3.154045E-15    1.183020E-14    3.782915E-14    1.038863E-13    2.445958E-13    5.040296E-13    1.098180E-12    5.591306E-12    7.935217E-11
         2.242239E-09    8.114170E-08    2.999710E-06    1.016102E-04    2.655997E-03    2.891664E-02    0.182919        0.388224        0.370498        0.171804    
         2.637345E-02    1.900898E-03    8.056663E-05    2.422493E-06    6.257789E-08    1.795637E-09    2.195713E-11    2.625379E-13    3.331214E-15    6.642597E-17
         9.753592E-18    1.948510E-18    4.395046E-19    9.655366E-20    1.832273E-20    2.745747E-21    3.014390E-22    2.230825E-23    9.764045E-25    1.988774E-26
  48    -1.426325E-23    1.713178E-22    1.431937E-20    2.298096E-19    1.877438E-18    9.718917E-18    3.578569E-17    1.001764E-16    5.357951E-16    4.515617E-15
         3.018871E-14    1.651089E-13    7.580640E-13    3.004931E-12    1.050656E-11    3.328165E-11    1.005304E-10    3.217733E-10    1.314698E-09    8.348659E-09
         7.575117E-08    8.525359E-07    1.059544E-05    1.309685E-04    1.450098E-03    1.252978E-02    6.439773E-02    0.168907        0.151428        5.436483E-02
         5.907077E-03    3.651508E-04    1.589897E-05    6.188269E-07    2.723100E-08    7.120619E-10    1.767250E-11    4.445245E-13    1.251281E-14    4.403121E-16
         5.126442E-17    1.244401E-17    2.828478E-18    5.854758E-19    1.024326E-19    1.408857E-20    1.420582E-21    9.679348E-23    3.910528E-24    7.402978E-26
  49    -5.435562E-24    6.111427E-22    2.740760E-20    4.455106E-19    3.956592E-18    2.246702E-17    8.920458E-17    7.901750E-16    1.026851E-14    1.020290E-13
         7.940728E-13    5.008188E-12    2.658739E-11    1.222898E-10    5.011559E-10    1.892568E-09    6.894251E-09    2.575315E-08    1.051545E-07    4.837895E-07
         2.441845E-06    1.272322E-05    6.609330E-05    3.310946E-04    1.515408E-03    5.785310E-03    1.682016E-02    2.991366E-02    3.048549E-02    9.474890E-03
         7.738843E-04    3.946353E-05    1.922055E-06    1.102501E-07    5.521269E-09    2.776741E-10    1.424001E-11    7.700114E-13    4.540171E-14    2.894788E-15
         1.992856E-16    4.885294E-17    1.180351E-17    2.508386E-18    4.363197E-19    5.857003E-20    5.710018E-21    3.748159E-22    1.457426E-23    2.663888E-25
  50     6.634544E-25    6.425930E-22    2.790166E-20    5.108392E-19    5.315807E-18    3.648722E-17    2.719626E-16    5.856325E-15    9.637422E-14    1.158713E-12
         1.051456E-11    7.574567E-11    4.502347E-10    2.279602E-09    1.010661E-08    4.017229E-08    1.459261E-07    4.920609E-07    1.560356E-06    4.704338E-06
         1.361146E-05    3.810366E-05    1.035272E-04    2.720559E-04    6.836945E-04    1.600410E-03    3.186651E-03    4.563406E-03    1.839601E-03    6.635062E-04
         5.050912E-05    2.037884E-06    1.171264E-07    8.573368E-09    7.201428E-10    6.666140E-11    6.640518E-12    6.920673E-13    7.274148E-14    7.255250E-15
         6.385795E-16    9.077470E-17    2.807880E-17    6.729032E-18    1.248220E-18    1.733202E-19    1.712454E-20    1.123701E-21    4.336240E-23    7.864166E-25

 CONCENTRATION WILL BE SAVED ON UNIT 1031 AT END OF TIME STEP  100, STRESS PERIOD    1


  MASS BUDGET FOR ENTIRE MODEL AT END OF TIME STEP  100, STRESS PERIOD   1
  ---------------------------------------------------------------------------------------------------

     CUMULATIVE MASS      M       RATES FOR THIS TIME STEP      M/T          PACKAGE NAME    
     ------------------                 ------------------------                     ----------------

           IN:                                      IN:
           ---                                      ---
     STORAGE-AQUEOUS =       1.0899E-11       STORAGE-AQUEOUS =       7.7041E-27     MST                              
                 WEL =           0.0000                   WEL =           0.0000     SSM_WEL1                         
                 WEL =           0.1000                   WEL =       5.0000E-04     SSM_WEL2                         

            TOTAL IN =           0.1000              TOTAL IN =       5.0000E-04

          OUT:                                     OUT:
          ----                                     ----
     STORAGE-AQUEOUS =       5.5565E-02       STORAGE-AQUEOUS =       1.3974E-04     MST                              
                 WEL =       4.4435E-02                   WEL =       3.6026E-04     SSM_WEL1                         
                 WEL =           0.0000                   WEL =           0.0000     SSM_WEL2                         

           TOTAL OUT =           0.1000             TOTAL OUT =       5.0000E-04

            IN - OUT =      -6.7410E-07              IN - OUT =      -1.8031E-09

 PERCENT DISCREPANCY =          -0.00     PERCENT DISCREPANCY =          -0.00




         TIME SUMMARY AT END OF TIME STEP  100 IN STRESS PERIOD    1
                    SECONDS     MINUTES      HOURS       DAYS        YEARS
                    -----------------------------------------------------------
   TIME STEP LENGTH 1.72800E+05  2880.0      48.000      2.0000     5.47570E-03
 STRESS PERIOD TIME 1.72800E+07 2.88000E+05  4800.0      200.00     0.54757    
         TOTAL TIME 1.72800E+07 2.88000E+05  4800.0      200.00     0.54757    


end timestep


start timestep kper="2" kstp="1" mode="normal"


 END OF FILE DETECTED IN OUTPUT CONTROL.
 CURRENT OUTPUT CONTROL SETTINGS WILL BE 
 REPEATED UNTIL THE END OF THE SIMULATION.

 OUTPUT CONTROL FOR STRESS PERIOD 2 IS REPEATED USING SETTINGS FROM A PREVIOUS STRESS PERIOD.
 UBDSV1 SAVING     FLOW-JA-FACE ON UNIT   1030 AT TIME STEP      1, STRESS PERIOD      2
 UBDSV1 SAVING  STORAGE-AQUEOUS ON UNIT   1030 AT TIME STEP      1, STRESS PERIOD      2
 UBDSV06 SAVING  SOURCE-SINK MIX IN MODEL SVA_TM_T         PACKAGE SVA_TM_T        CONNECTED TO MODEL SVA_TM_T         PACKAGE SSM              ON UNIT   1030 AT TIME STEP      1, STRESS PERIOD      2

 CONCENTRATION WILL BE SAVED ON UNIT 1031 AT END OF TIME STEP    1, STRESS PERIOD    2


  MASS BUDGET FOR ENTIRE MODEL AT END OF TIME STEP    1, STRESS PERIOD   2
  ---------------------------------------------------------------------------------------------------

     CUMULATIVE MASS      M       RATES FOR THIS TIME STEP      M/T          PACKAGE NAME    
     ------------------                 ------------------------                     ----------------

           IN:                                      IN:
           ---                                      ---
     STORAGE-AQUEOUS =       3.2569E-06       STORAGE-AQUEOUS =       1.6285E-06     MST                              
                 WEL =           0.0000                   WEL =           0.0000     SSM_WEL1                         
                 WEL =           0.1010                   WEL =       5.0000E-04     SSM_WEL2                         

            TOTAL IN =           0.1010              TOTAL IN =       5.0163E-04

          OUT:                                     OUT:
          ----                                     ----
     STORAGE-AQUEOUS =       5.6056E-02       STORAGE-AQUEOUS =       2.4509E-04     MST                              
                 WEL =       4.4948E-02                   WEL =       2.5654E-04     SSM_WEL1                         
                 WEL =           0.0000                   WEL =           0.0000     SSM_WEL2                         

           TOTAL OUT =           0.1010             TOTAL OUT =       5.0163E-04

            IN - OUT =      -6.7599E-07              IN - OUT =      -9.4477E-10

 PERCENT DISCREPANCY =          -0.00     PERCENT DISCREPANCY =          -0.00




         TIME SUMMARY AT END OF TIME STEP    1 IN STRESS PERIOD    2
                    SECONDS     MINUTES      HOURS       DAYS        YEARS
                    -----------------------------------------------------------
   TIME STEP LENGTH 1.72800E+05  2880.0      48.000      2.0000     5.47570E-03
 STRESS PERIOD TIME 1.72800E+05  2880.0      48.000      2.0000     5.47570E-03
         TOTAL TIME 1.74528E+07 2.90880E+05  4848.0      202.00     0.55305    


end timestep


start timestep kper="2" kstp="2" mode="normal"

 UBDSV1 SAVING     FLOW-JA-FACE ON UNIT   1030 AT TIME STEP      2, STRESS PERIOD      2
 UBDSV1 SAVING  STORAGE-AQUEOUS ON UNIT   1030 AT TIME STEP      2, STRESS PERIOD      2
 UBDSV06 SAVING  SOURCE-SINK MIX IN MODEL SVA_TM_T         PACKAGE SVA_TM_T        CONNECTED TO MODEL SVA_TM_T         PACKAGE SSM              ON UNIT   1030 AT TIME STEP      2, STRESS PERIOD      2

 CONCENTRATION WILL BE SAVED ON UNIT 1031 AT END OF TIME STEP    2, STRESS PERIOD    2


  MASS BUDGET FOR ENTIRE MODEL AT END OF TIME STEP    2, STRESS PERIOD   2
  ---------------------------------------------------------------------------------------------------

     CUMULATIVE MASS      M       RATES FOR THIS TIME STEP      M/T          PACKAGE NAME    
     ------------------                 ------------------------                     ----------------

           IN:                                      IN:
           ---                                      ---
     STORAGE-AQUEOUS =       5.9709E-06       STORAGE-AQUEOUS =       1.3570E-06     MST                              
                 WEL =           0.0000                   WEL =           0.0000     SSM_WEL1                         
                 WEL =           0.1020                   WEL =       5.0000E-04     SSM_WEL2                         

            TOTAL IN =           0.1020              TOTAL IN =       5.0136E-04

          OUT:                                     OUT:
          ----                                     ----
     STORAGE-AQUEOUS =       5.6539E-02       STORAGE-AQUEOUS =       2.4145E-04     MST                              
                 WEL =       4.5468E-02                   WEL =       2.5991E-04     SSM_WEL1                         
                 WEL =           0.0000                   WEL =           0.0000     SSM_WEL2                         

           TOTAL OUT =           0.1020             TOTAL OUT =       5.0136E-04

            IN - OUT =      -6.7545E-07              IN - OUT =       2.7105E-10

 PERCENT DISCREPANCY =          -0.00     PERCENT DISCREPANCY =           0.00




         TIME SUMMARY AT END OF TIME STEP    2 IN STRESS PERIOD    2
                    SECONDS     MINUTES      HOURS       DAYS        YEARS
                    -----------------------------------------------------------
   TIME STEP LENGTH 1.72800E+05  2880.0      48.000      2.0000     5.47570E-03
 STRESS PERIOD TIME 3.45600E+05  5760.0      96.000      4.0000     1.09514E-02
         TOTAL TIME 1.76256E+07 2.93760E+05  4896.0      204.00     0.55852    


end timestep


start timestep kper="2" kstp="3" mode="normal"

 UBDSV1 SAVING     FLOW-JA-FACE ON UNIT   1030 AT TIME STEP      3, STRESS PERIOD      2
 UBDSV1 SAVING  STORAGE-AQUEOUS ON UNIT   1030 AT TIME STEP      3, STRESS PERIOD      2
 UBDSV06 SAVING  SOURCE-SINK MIX IN MODEL SVA_TM_T         PACKAGE SVA_TM_T        CONNECTED TO MODEL SVA_TM_T         PACKAGE SSM              ON UNIT   1030 AT TIME STEP      3, STRESS PERIOD      2

 CONCENTRATION WILL BE SAVED ON UNIT 1031 AT END OF TIME STEP    3, STRESS PERIOD    2


  MASS BUDGET FOR ENTIRE MODEL AT END OF TIME STEP    3, STRESS PERIOD   2
  ---------------------------------------------------------------------------------------------------

     CUMULATIVE MASS      M       RATES FOR THIS TIME STEP      M/T          PACKAGE NAME    
     ------------------                 ------------------------                     ----------------

           IN:                                      IN:
           ---                                      ---
     STORAGE-AQUEOUS =       8.5262E-06       STORAGE-AQUEOUS =       1.2776E-06     MST                              
                 WEL =           0.0000                   WEL =           0.0000     SSM_WEL1                         
                 WEL =           0.1030                   WEL =       5.0000E-04     SSM_WEL2                         

            TOTAL IN =           0.1030              TOTAL IN =       5.0128E-04

          OUT:                                     OUT:
          ----                                     ----
     STORAGE-AQUEOUS =       5.7016E-02       STORAGE-AQUEOUS =       2.3863E-04     MST                              
                 WEL =       4.5993E-02                   WEL =       2.6265E-04     SSM_WEL1                         
                 WEL =           0.0000                   WEL =           0.0000     SSM_WEL2                         

           TOTAL OUT =           0.1030             TOTAL OUT =       5.0128E-04

            IN - OUT =      -6.8119E-07              IN - OUT =      -2.8699E-09

 PERCENT DISCREPANCY =          -0.00     PERCENT DISCREPANCY =          -0.00




         TIME SUMMARY AT END OF TIME STEP    3 IN STRESS PERIOD    2
                    SECONDS     MINUTES      HOURS       DAYS        YEARS
                    -----------------------------------------------------------
   TIME STEP LENGTH 1.72800E+05  2880.0      48.000      2.0000     5.47570E-03
 STRESS PERIOD TIME 5.18400E+05  8640.0      144.00      6.0000     1.64271E-02
         TOTAL TIME 1.77984E+07 2.96640E+05  4944.0      206.00     0.56400    


end timestep


start timestep kper="2" kstp="4" mode="normal"

 UBDSV1 SAVING     FLOW-JA-FACE ON UNIT   1030 AT TIME STEP      4, STRESS PERIOD      2
 UBDSV1 SAVING  STORAGE-AQUEOUS ON UNIT   1030 AT TIME STEP      4, STRESS PERIOD      2
 UBDSV06 SAVING  SOURCE-SINK MIX IN MODEL SVA_TM_T         PACKAGE SVA_TM_T        CONNECTED TO MODEL SVA_TM_T         PACKAGE SSM              ON UNIT   1030 AT TIME STEP      4, STRESS PERIOD      2

 CONCENTRATION WILL BE SAVED ON UNIT 1031 AT END OF TIME STEP    4, STRESS PERIOD    2


  MASS BUDGET FOR ENTIRE MODEL AT END OF TIME STEP    4, STRESS PERIOD   2
  ---------------------------------------------------------------------------------------------------

     CUMULATIVE MASS      M       RATES FOR THIS TIME STEP      M/T          PACKAGE NAME    
     ------------------                 ------------------------                     ----------------

           IN:                                      IN:
           ---                                      ---
     STORAGE-AQUEOUS =       1.0775E-05       STORAGE-AQUEOUS =       1.1246E-06     MST                              
                 WEL =           0.0000                   WEL =           0.0000     SSM_WEL1                         
                 WEL =           0.1040                   WEL =       5.0000E-04     SSM_WEL2                         

            TOTAL IN =           0.1040              TOTAL IN =       5.0112E-04

          OUT:                                     OUT:
          ----                                     ----
     STORAGE-AQUEOUS =       5.7488E-02       STORAGE-AQUEOUS =       2.3624E-04     MST                              
                 WEL =       4.6523E-02                   WEL =       2.6488E-04     SSM_WEL1                         
                 WEL =           0.0000                   WEL =           0.0000     SSM_WEL2                         

           TOTAL OUT =           0.1040             TOTAL OUT =       5.0112E-04

            IN - OUT =      -6.8112E-07              IN - OUT =       3.4581E-11

 PERCENT DISCREPANCY =          -0.00     PERCENT DISCREPANCY =           0.00




         TIME SUMMARY AT END OF TIME STEP    4 IN STRESS PERIOD    2
                    SECONDS     MINUTES      HOURS       DAYS        YEARS
                    -----------------------------------------------------------
   TIME STEP LENGTH 1.72800E+05  2880.0      48.000      2.0000     5.47570E-03
 STRESS PERIOD TIME 6.91200E+05  11520.      192.00      8.0000     2.19028E-02
         TOTAL TIME 1.79712E+07 2.99520E+05  4992.0      208.00     0.56947    


end timestep


start timestep kper="2" kstp="5" mode="normal"

 UBDSV1 SAVING     FLOW-JA-FACE ON UNIT   1030 AT TIME STEP      5, STRESS PERIOD      2
 UBDSV1 SAVING  STORAGE-AQUEOUS ON UNIT   1030 AT TIME STEP      5, STRESS PERIOD      2
 UBDSV06 SAVING  SOURCE-SINK MIX IN MODEL SVA_TM_T         PACKAGE SVA_TM_T        CONNECTED TO MODEL SVA_TM_T         PACKAGE SSM              ON UNIT   1030 AT TIME STEP      5, STRESS PERIOD      2

 CONCENTRATION WILL BE SAVED ON UNIT 1031 AT END OF TIME STEP    5, STRESS PERIOD    2


  MASS BUDGET FOR ENTIRE MODEL AT END OF TIME STEP    5, STRESS PERIOD   2
  ---------------------------------------------------------------------------------------------------

     CUMULATIVE MASS      M       RATES FOR THIS TIME STEP      M/T          PACKAGE NAME    
     ------------------                 ------------------------                     ----------------

           IN:                                      IN:
           ---                                      ---
     STORAGE-AQUEOUS =       1.2751E-05       STORAGE-AQUEOUS =       9.8796E-07     MST                              
                 WEL =           0.0000                   WEL =           0.0000     SSM_WEL1                         
                 WEL =           0.1050                   WEL =       5.0000E-04     SSM_WEL2                         

            TOTAL IN =           0.1050              TOTAL IN =       5.0099E-04

          OUT:                                     OUT:
          ----                                     ----
     STORAGE-AQUEOUS =       5.7957E-02       STORAGE-AQUEOUS =       2.3423E-04     MST                              
                 WEL =       4.7057E-02                   WEL =       2.6676E-04     SSM_WEL1                         
                 WEL =           0.0000                   WEL =           0.0000     SSM_WEL2                         

           TOTAL OUT =           0.1050             TOTAL OUT =       5.0099E-04

            IN - OUT =      -6.8119E-07              IN - OUT =      -3.3702E-11

 PERCENT DISCREPANCY =          -0.00     PERCENT DISCREPANCY =          -0.00




         TIME SUMMARY AT END OF TIME STEP    5 IN STRESS PERIOD    2
                    SECONDS     MINUTES      HOURS       DAYS        YEARS
                    -----------------------------------------------------------
   TIME STEP LENGTH 1.72800E+05  2880.0      48.000      2.0000     5.47570E-03
 STRESS PERIOD TIME 8.64000E+05  14400.      240.00      10.000     2.73785E-02
         TOTAL TIME 1.81440E+07 3.02400E+05  5040.0      210.00     0.57495    


end timestep


start timestep kper="2" kstp="6" mode="normal"

 UBDSV1 SAVING     FLOW-JA-FACE ON UNIT   1030 AT TIME STEP      6, STRESS PERIOD      2
 UBDSV1 SAVING  STORAGE-AQUEOUS ON UNIT   1030 AT TIME STEP      6, STRESS PERIOD      2
 UBDSV06 SAVING  SOURCE-SINK MIX IN MODEL SVA_TM_T         PACKAGE SVA_TM_T        CONNECTED TO MODEL SVA_TM_T         PACKAGE SSM              ON UNIT   1030 AT TIME STEP      6, STRESS PERIOD      2

 CONCENTRATION WILL BE SAVED ON UNIT 1031 AT END OF TIME STEP    6, STRESS PERIOD    2


  MASS BUDGET FOR ENTIRE MODEL AT END OF TIME STEP    6, STRESS PERIOD   2
  ---------------------------------------------------------------------------------------------------

     CUMULATIVE MASS      M       RATES FOR THIS TIME STEP      M/T          PACKAGE NAME    
     ------------------                 ------------------------                     ----------------

           IN:                                      IN:
           ---                                      ---
     STORAGE-AQUEOUS =       1.4477E-05       STORAGE-AQUEOUS =       8.6299E-07     MST                              
                 WEL =           0.0000                   WEL =           0.0000     SSM_WEL1                         
                 WEL =           0.1060                   WEL =       5.0000E-04     SSM_WEL2                         

            TOTAL IN =           0.1060              TOTAL IN =       5.0086E-04

          OUT:                                     OUT:
          ----                                     ----
     STORAGE-AQUEOUS =       5.8422E-02       STORAGE-AQUEOUS =       2.3248E-04     MST                              
                 WEL =       4.7593E-02                   WEL =       2.6838E-04     SSM_WEL1                         
                 WEL =           0.0000                   WEL =           0.0000     SSM_WEL2                         

           TOTAL OUT =           0.1060             TOTAL OUT =       5.0086E-04

            IN - OUT =      -6.8112E-07              IN - OUT =       3.1349E-11

 PERCENT DISCREPANCY =          -0.00     PERCENT DISCREPANCY =           0.00




         TIME SUMMARY AT END OF TIME STEP    6 IN STRESS PERIOD    2
                    SECONDS     MINUTES      HOURS       DAYS        YEARS
                    -----------------------------------------------------------
   TIME STEP LENGTH 1.72800E+05  2880.0      48.000      2.0000     5.47570E-03
 STRESS PERIOD TIME 1.03680E+06  17280.      288.00      12.000     3.28542E-02
         TOTAL TIME 1.83168E+07 3.05280E+05  5088.0      212.00     0.58042    


end timestep


start timestep kper="2" kstp="7" mode="normal"

 UBDSV1 SAVING     FLOW-JA-FACE ON UNIT   1030 AT TIME STEP      7, STRESS PERIOD      2
 UBDSV1 SAVING  STORAGE-AQUEOUS ON UNIT   1030 AT TIME STEP      7, STRESS PERIOD      2
 UBDSV06 SAVING  SOURCE-SINK MIX IN MODEL SVA_TM_T         PACKAGE SVA_TM_T        CONNECTED TO MODEL SVA_TM_T         PACKAGE SSM              ON UNIT   1030 AT TIME STEP      7, STRESS PERIOD      2

 CONCENTRATION WILL BE SAVED ON UNIT 1031 AT END OF TIME STEP    7, STRESS PERIOD    2


  MASS BUDGET FOR ENTIRE MODEL AT END OF TIME STEP    7, STRESS PERIOD   2
  ---------------------------------------------------------------------------------------------------

     CUMULATIVE MASS      M       RATES FOR THIS TIME STEP      M/T          PACKAGE NAME    
     ------------------                 ------------------------                     ----------------

           IN:                                      IN:
           ---                                      ---
     STORAGE-AQUEOUS =       1.5947E-05       STORAGE-AQUEOUS =       7.3482E-07     MST                              
                 WEL =           0.0000                   WEL =           0.0000     SSM_WEL1                         
                 WEL =           0.1070                   WEL =       5.0000E-04     SSM_WEL2                         

            TOTAL IN =           0.1070              TOTAL IN =       5.0073E-04

          OUT:                                     OUT:
          ----                                     ----
     STORAGE-AQUEOUS =       5.8883E-02       STORAGE-AQUEOUS =       2.3088E-04     MST                              
                 WEL =       4.8133E-02                   WEL =       2.6985E-04     SSM_WEL1                         
                 WEL =           0.0000                   WEL =           0.0000     SSM_WEL2                         

           TOTAL OUT =           0.1070             TOTAL OUT =       5.0073E-04

            IN - OUT =      -6.8106E-07              IN - OUT =       3.0755E-11

 PERCENT DISCREPANCY =          -0.00     PERCENT DISCREPANCY =           0.00




         TIME SUMMARY AT END OF TIME STEP    7 IN STRESS PERIOD    2
                    SECONDS     MINUTES      HOURS       DAYS        YEARS
                    -----------------------------------------------------------
   TIME STEP LENGTH 1.72800E+05  2880.0      48.000      2.0000     5.47570E-03
 STRESS PERIOD TIME 1.20960E+06  20160.      336.00      14.000     3.83299E-02
         TOTAL TIME 1.84896E+07 3.08160E+05  5136.0      214.00     0.58590    


end timestep


start timestep kper="2" kstp="8" mode="normal"

 UBDSV1 SAVING     FLOW-JA-FACE ON UNIT   1030 AT TIME STEP      8, STRESS PERIOD      2
 UBDSV1 SAVING  STORAGE-AQUEOUS ON UNIT   1030 AT TIME STEP      8, STRESS PERIOD      2
 UBDSV06 SAVING  SOURCE-SINK MIX IN MODEL SVA_TM_T         PACKAGE SVA_TM_T        CONNECTED TO MODEL SVA_TM_T         PACKAGE SSM              ON UNIT   1030 AT TIME STEP      8, STRESS PERIOD      2

 CONCENTRATION WILL BE SAVED ON UNIT 1031 AT END OF TIME STEP    8, STRESS PERIOD    2


  MASS BUDGET FOR ENTIRE MODEL AT END OF TIME STEP    8, STRESS PERIOD   2
  ---------------------------------------------------------------------------------------------------

     CUMULATIVE MASS      M       RATES FOR THIS TIME STEP      M/T          PACKAGE NAME    
     ------------------                 ------------------------                     ----------------

           IN:                                      IN:
           ---                                      ---
     STORAGE-AQUEOUS =       1.7201E-05       STORAGE-AQUEOUS =       6.2722E-07     MST                              
                 WEL =           0.0000                   WEL =           0.0000     SSM_WEL1                         
                 WEL =           0.1080                   WEL =       5.0000E-04     SSM_WEL2                         

            TOTAL IN =           0.1080              TOTAL IN =       5.0063E-04

          OUT:                                     OUT:
          ----                                     ----
     STORAGE-AQUEOUS =       5.9342E-02       STORAGE-AQUEOUS =       2.2940E-04     MST                              
                 WEL =       4.8676E-02                   WEL =       2.7123E-04     SSM_WEL1                         
                 WEL =           0.0000                   WEL =           0.0000     SSM_WEL2                         

           TOTAL OUT =           0.1080             TOTAL OUT =       5.0063E-04

            IN - OUT =      -6.8105E-07              IN - OUT =       3.4866E-12

 PERCENT DISCREPANCY =          -0.00     PERCENT DISCREPANCY =           0.00




         TIME SUMMARY AT END OF TIME STEP    8 IN STRESS PERIOD    2
                    SECONDS     MINUTES      HOURS       DAYS        YEARS
                    -----------------------------------------------------------
   TIME STEP LENGTH 1.72800E+05  2880.0      48.000      2.0000     5.47570E-03
 STRESS PERIOD TIME 1.38240E+06  23040.      384.00      16.000     4.38056E-02
         TOTAL TIME 1.86624E+07 3.11040E+05  5184.0      216.00     0.59138    


end timestep


start timestep kper="2" kstp="9" mode="normal"

 UBDSV1 SAVING     FLOW-JA-FACE ON UNIT   1030 AT TIME STEP      9, STRESS PERIOD      2
 UBDSV1 SAVING  STORAGE-AQUEOUS ON UNIT   1030 AT TIME STEP      9, STRESS PERIOD      2
 UBDSV06 SAVING  SOURCE-SINK MIX IN MODEL SVA_TM_T         PACKAGE SVA_TM_T        CONNECTED TO MODEL SVA_TM_T         PACKAGE SSM              ON UNIT   1030 AT TIME STEP      9, STRESS PERIOD      2

 CONCENTRATION WILL BE SAVED ON UNIT 1031 AT END OF TIME STEP    9, STRESS PERIOD    2


  MASS BUDGET FOR ENTIRE MODEL AT END OF TIME STEP    9, STRESS PERIOD   2
  ---------------------------------------------------------------------------------------------------

     CUMULATIVE MASS      M       RATES FOR THIS TIME STEP      M/T          PACKAGE NAME    
     ------------------                 ------------------------                     ----------------

           IN:                                      IN:
           ---                                      ---
     STORAGE-AQUEOUS =       1.8267E-05       STORAGE-AQUEOUS =       5.3265E-07     MST                              
                 WEL =           0.0000                   WEL =           0.0000     SSM_WEL1                         
                 WEL =           0.1090                   WEL =       5.0000E-04     SSM_WEL2                         

            TOTAL IN =           0.1090              TOTAL IN =       5.0053E-04

          OUT:                                     OUT:
          ----                                     ----
     STORAGE-AQUEOUS =       5.9798E-02       STORAGE-AQUEOUS =       2.2799E-04     MST                              
                 WEL =       4.9221E-02                   WEL =       2.7255E-04     SSM_WEL1                         
                 WEL =           0.0000                   WEL =           0.0000     SSM_WEL2                         

           TOTAL OUT =           0.1090             TOTAL OUT =       5.0053E-04

            IN - OUT =      -6.8096E-07              IN - OUT =       4.7501E-11

 PERCENT DISCREPANCY =          -0.00     PERCENT DISCREPANCY =           0.00




         TIME SUMMARY AT END OF TIME STEP    9 IN STRESS PERIOD    2
                    SECONDS     MINUTES      HOURS       DAYS        YEARS
                    -----------------------------------------------------------
   TIME STEP LENGTH 1.72800E+05  2880.0      48.000      2.0000     5.47570E-03
 STRESS PERIOD TIME 1.55520E+06  25920.      432.00      18.000     4.92813E-02
         TOTAL TIME 1.88352E+07 3.13920E+05  5232.0      218.00     0.59685    


end timestep


start timestep kper="2" kstp="10" mode="normal"

 UBDSV1 SAVING     FLOW-JA-FACE ON UNIT   1030 AT TIME STEP     10, STRESS PERIOD      2
 UBDSV1 SAVING  STORAGE-AQUEOUS ON UNIT   1030 AT TIME STEP     10, STRESS PERIOD      2
 UBDSV06 SAVING  SOURCE-SINK MIX IN MODEL SVA_TM_T         PACKAGE SVA_TM_T        CONNECTED TO MODEL SVA_TM_T         PACKAGE SSM              ON UNIT   1030 AT TIME STEP     10, STRESS PERIOD      2

 CONCENTRATION WILL BE SAVED ON UNIT 1031 AT END OF TIME STEP   10, STRESS PERIOD    2


  MASS BUDGET FOR ENTIRE MODEL AT END OF TIME STEP   10, STRESS PERIOD   2
  ---------------------------------------------------------------------------------------------------

     CUMULATIVE MASS      M       RATES FOR THIS TIME STEP      M/T          PACKAGE NAME    
     ------------------                 ------------------------                     ----------------

           IN:                                      IN:
           ---                                      ---
     STORAGE-AQUEOUS =       1.9207E-05       STORAGE-AQUEOUS =       4.7027E-07     MST                              
                 WEL =           0.0000                   WEL =           0.0000     SSM_WEL1                         
                 WEL =           0.1100                   WEL =       5.0000E-04     SSM_WEL2                         

            TOTAL IN =           0.1100              TOTAL IN =       5.0047E-04

          OUT:                                     OUT:
          ----                                     ----
     STORAGE-AQUEOUS =       6.0252E-02       STORAGE-AQUEOUS =       2.2665E-04     MST                              
                 WEL =       4.9768E-02                   WEL =       2.7382E-04     SSM_WEL1                         
                 WEL =           0.0000                   WEL =           0.0000     SSM_WEL2                         

           TOTAL OUT =           0.1100             TOTAL OUT =       5.0047E-04

            IN - OUT =      -6.8279E-07              IN - OUT =      -9.1623E-10

 PERCENT DISCREPANCY =          -0.00     PERCENT DISCREPANCY =          -0.00




         TIME SUMMARY AT END OF TIME STEP   10 IN STRESS PERIOD    2
                    SECONDS     MINUTES      HOURS       DAYS        YEARS
                    -----------------------------------------------------------
   TIME STEP LENGTH 1.72800E+05  2880.0      48.000      2.0000     5.47570E-03
 STRESS PERIOD TIME 1.72800E+06  28800.      480.00      20.000     5.47570E-02
         TOTAL TIME 1.90080E+07 3.16800E+05  5280.0      220.00     0.60233    


end timestep


start timestep kper="2" kstp="11" mode="normal"

 UBDSV1 SAVING     FLOW-JA-FACE ON UNIT   1030 AT TIME STEP     11, STRESS PERIOD      2
 UBDSV1 SAVING  STORAGE-AQUEOUS ON UNIT   1030 AT TIME STEP     11, STRESS PERIOD      2
 UBDSV06 SAVING  SOURCE-SINK MIX IN MODEL SVA_TM_T         PACKAGE SVA_TM_T        CONNECTED TO MODEL SVA_TM_T         PACKAGE SSM              ON UNIT   1030 AT TIME STEP     11, STRESS PERIOD      2

 CONCENTRATION WILL BE SAVED ON UNIT 1031 AT END OF TIME STEP   11, STRESS PERIOD    2


  MASS BUDGET FOR ENTIRE MODEL AT END OF TIME STEP   11, STRESS PERIOD   2
  ---------------------------------------------------------------------------------------------------

     CUMULATIVE MASS      M       RATES FOR THIS TIME STEP      M/T          PACKAGE NAME    
     ------------------                 ------------------------                     ----------------

           IN:                                      IN:
           ---                                      ---
     STORAGE-AQUEOUS =       2.0063E-05       STORAGE-AQUEOUS =       4.2776E-07     MST                              
                 WEL =           0.0000                   WEL =           0.0000     SSM_WEL1                         
                 WEL =           0.1110                   WEL =       5.0000E-04     SSM_WEL2                         

            TOTAL IN =           0.1110              TOTAL IN =       5.0043E-04

          OUT:                                     OUT:
          ----                                     ----
     STORAGE-AQUEOUS =       6.0702E-02       STORAGE-AQUEOUS =       2.2538E-04     MST                              
                 WEL =       5.0318E-02                   WEL =       2.7505E-04     SSM_WEL1                         
                 WEL =           0.0000                   WEL =           0.0000     SSM_WEL2                         

           TOTAL OUT =           0.1110             TOTAL OUT =       5.0043E-04

            IN - OUT =      -6.8750E-07              IN - OUT =      -2.3546E-09

 PERCENT DISCREPANCY =          -0.00     PERCENT DISCREPANCY =          -0.00




         TIME SUMMARY AT END OF TIME STEP   11 IN STRESS PERIOD    2
                    SECONDS     MINUTES      HOURS       DAYS        YEARS
                    -----------------------------------------------------------
   TIME STEP LENGTH 1.72800E+05  2880.0      48.000      2.0000     5.47570E-03
 STRESS PERIOD TIME 1.90080E+06  31680.      528.00      22.000     6.02327E-02
         TOTAL TIME 1.91808E+07 3.19680E+05  5328.0      222.00     0.60780    


end timestep


start timestep kper="2" kstp="12" mode="normal"

 UBDSV1 SAVING     FLOW-JA-FACE ON UNIT   1030 AT TIME STEP     12, STRESS PERIOD      2
 UBDSV1 SAVING  STORAGE-AQUEOUS ON UNIT   1030 AT TIME STEP     12, STRESS PERIOD      2
 UBDSV06 SAVING  SOURCE-SINK MIX IN MODEL SVA_TM_T         PACKAGE SVA_TM_T        CONNECTED TO MODEL SVA_TM_T         PACKAGE SSM              ON UNIT   1030 AT TIME STEP     12, STRESS PERIOD      2

 CONCENTRATION WILL BE SAVED ON UNIT 1031 AT END OF TIME STEP   12, STRESS PERIOD    2


  MASS BUDGET FOR ENTIRE MODEL AT END OF TIME STEP   12, STRESS PERIOD   2
  ---------------------------------------------------------------------------------------------------

     CUMULATIVE MASS      M       RATES FOR THIS TIME STEP      M/T          PACKAGE NAME    
     ------------------                 ------------------------                     ----------------

           IN:                                      IN:
           ---                                      ---
     STORAGE-AQUEOUS =       2.0835E-05       STORAGE-AQUEOUS =       3.8636E-07     MST                              
                 WEL =           0.0000                   WEL =           0.0000     SSM_WEL1                         
                 WEL =           0.1120                   WEL =       5.0000E-04     SSM_WEL2                         

            TOTAL IN =           0.1120              TOTAL IN =       5.0039E-04

          OUT:                                     OUT:
          ----                                     ----
     STORAGE-AQUEOUS =       6.1151E-02       STORAGE-AQUEOUS =       2.2415E-04     MST                              
                 WEL =       5.0871E-02                   WEL =       2.7624E-04     SSM_WEL1                         
                 WEL =           0.0000                   WEL =           0.0000     SSM_WEL2                         

           TOTAL OUT =           0.1120             TOTAL OUT =       5.0039E-04

            IN - OUT =      -6.9183E-07              IN - OUT =      -2.1627E-09

 PERCENT DISCREPANCY =          -0.00     PERCENT DISCREPANCY =          -0.00




         TIME SUMMARY AT END OF TIME STEP   12 IN STRESS PERIOD    2
                    SECONDS     MINUTES      HOURS       DAYS        YEARS
                    -----------------------------------------------------------
   TIME STEP LENGTH 1.72800E+05  2880.0      48.000      2.0000     5.47570E-03
 STRESS PERIOD TIME 2.07360E+06  34560.      576.00      24.000     6.57084E-02
         TOTAL TIME 1.93536E+07 3.22560E+05  5376.0      224.00     0.61328    


end timestep


start timestep kper="2" kstp="13" mode="normal"

 UBDSV1 SAVING     FLOW-JA-FACE ON UNIT   1030 AT TIME STEP     13, STRESS PERIOD      2
 UBDSV1 SAVING  STORAGE-AQUEOUS ON UNIT   1030 AT TIME STEP     13, STRESS PERIOD      2
 UBDSV06 SAVING  SOURCE-SINK MIX IN MODEL SVA_TM_T         PACKAGE SVA_TM_T        CONNECTED TO MODEL SVA_TM_T         PACKAGE SSM              ON UNIT   1030 AT TIME STEP     13, STRESS PERIOD      2

 CONCENTRATION WILL BE SAVED ON UNIT 1031 AT END OF TIME STEP   13, STRESS PERIOD    2


  MASS BUDGET FOR ENTIRE MODEL AT END OF TIME STEP   13, STRESS PERIOD   2
  ---------------------------------------------------------------------------------------------------

     CUMULATIVE MASS      M       RATES FOR THIS TIME STEP      M/T          PACKAGE NAME    
     ------------------                 ------------------------                     ----------------

           IN:                                      IN:
           ---                                      ---
     STORAGE-AQUEOUS =       2.1528E-05       STORAGE-AQUEOUS =       3.4640E-07     MST                              
                 WEL =           0.0000                   WEL =           0.0000     SSM_WEL1                         
                 WEL =           0.1130                   WEL =       5.0000E-04     SSM_WEL2                         

            TOTAL IN =           0.1130              TOTAL IN =       5.0035E-04

          OUT:                                     OUT:
          ----                                     ----
     STORAGE-AQUEOUS =       6.1597E-02       STORAGE-AQUEOUS =       2.2296E-04     MST                              
                 WEL =       5.1426E-02                   WEL =       2.7739E-04     SSM_WEL1                         
                 WEL =           0.0000                   WEL =           0.0000     SSM_WEL2                         

           TOTAL OUT =           0.1130             TOTAL OUT =       5.0035E-04

            IN - OUT =      -6.9672E-07              IN - OUT =      -2.4489E-09

 PERCENT DISCREPANCY =          -0.00     PERCENT DISCREPANCY =          -0.00




         TIME SUMMARY AT END OF TIME STEP   13 IN STRESS PERIOD    2
                    SECONDS     MINUTES      HOURS       DAYS        YEARS
                    -----------------------------------------------------------
   TIME STEP LENGTH 1.72800E+05  2880.0      48.000      2.0000     5.47570E-03
 STRESS PERIOD TIME 2.24640E+06  37440.      624.00      26.000     7.11841E-02
         TOTAL TIME 1.95264E+07 3.25440E+05  5424.0      226.00     0.61875    


end timestep


start timestep kper="2" kstp="14" mode="normal"

 UBDSV1 SAVING     FLOW-JA-FACE ON UNIT   1030 AT TIME STEP     14, STRESS PERIOD      2
 UBDSV1 SAVING  STORAGE-AQUEOUS ON UNIT   1030 AT TIME STEP     14, STRESS PERIOD      2
 UBDSV06 SAVING  SOURCE-SINK MIX IN MODEL SVA_TM_T         PACKAGE SVA_TM_T        CONNECTED TO MODEL SVA_TM_T         PACKAGE SSM              ON UNIT   1030 AT TIME STEP     14, STRESS PERIOD      2

 CONCENTRATION WILL BE SAVED ON UNIT 1031 AT END OF TIME STEP   14, STRESS PERIOD    2


  MASS BUDGET FOR ENTIRE MODEL AT END OF TIME STEP   14, STRESS PERIOD   2
  ---------------------------------------------------------------------------------------------------

     CUMULATIVE MASS      M       RATES FOR THIS TIME STEP      M/T          PACKAGE NAME    
     ------------------                 ------------------------                     ----------------

           IN:                                      IN:
           ---                                      ---
     STORAGE-AQUEOUS =       2.2145E-05       STORAGE-AQUEOUS =       3.0828E-07     MST                              
                 WEL =           0.0000                   WEL =           0.0000     SSM_WEL1                         
                 WEL =           0.1140                   WEL =       5.0000E-04     SSM_WEL2                         

            TOTAL IN =           0.1140              TOTAL IN =       5.0031E-04

          OUT:                                     OUT:
          ----                                     ----
     STORAGE-AQUEOUS =       6.2040E-02       STORAGE-AQUEOUS =       2.2182E-04     MST                              
                 WEL =       5.1983E-02                   WEL =       2.7849E-04     SSM_WEL1                         
                 WEL =           0.0000                   WEL =           0.0000     SSM_WEL2                         

           TOTAL OUT =           0.1140             TOTAL OUT =       5.0031E-04

            IN - OUT =      -7.0604E-07              IN - OUT =      -4.6583E-09

 PERCENT DISCREPANCY =          -0.00     PERCENT DISCREPANCY =          -0.00




         TIME SUMMARY AT END OF TIME STEP   14 IN STRESS PERIOD    2
                    SECONDS     MINUTES      HOURS       DAYS        YEARS
                    -----------------------------------------------------------
   TIME STEP LENGTH 1.72800E+05  2880.0      48.000      2.0000     5.47570E-03
 STRESS PERIOD TIME 2.41920E+06  40320.      672.00      28.000     7.66598E-02
         TOTAL TIME 1.96992E+07 3.28320E+05  5472.0      228.00     0.62423    


end timestep


start timestep kper="2" kstp="15" mode="normal"

 UBDSV1 SAVING     FLOW-JA-FACE ON UNIT   1030 AT TIME STEP     15, STRESS PERIOD      2
 UBDSV1 SAVING  STORAGE-AQUEOUS ON UNIT   1030 AT TIME STEP     15, STRESS PERIOD      2
 UBDSV06 SAVING  SOURCE-SINK MIX IN MODEL SVA_TM_T         PACKAGE SVA_TM_T        CONNECTED TO MODEL SVA_TM_T         PACKAGE SSM              ON UNIT   1030 AT TIME STEP     15, STRESS PERIOD      2

 CONCENTRATION WILL BE SAVED ON UNIT 1031 AT END OF TIME STEP   15, STRESS PERIOD    2


  MASS BUDGET FOR ENTIRE MODEL AT END OF TIME STEP   15, STRESS PERIOD   2
  ---------------------------------------------------------------------------------------------------

     CUMULATIVE MASS      M       RATES FOR THIS TIME STEP      M/T          PACKAGE NAME    
     ------------------                 ------------------------                     ----------------

           IN:                                      IN:
           ---                                      ---
     STORAGE-AQUEOUS =       2.2690E-05       STORAGE-AQUEOUS =       2.7260E-07     MST                              
                 WEL =           0.0000                   WEL =           0.0000     SSM_WEL1                         
                 WEL =           0.1150                   WEL =       5.0000E-04     SSM_WEL2                         

            TOTAL IN =           0.1150              TOTAL IN =       5.0027E-04

          OUT:                                     OUT:
          ----                                     ----
     STORAGE-AQUEOUS =       6.2482E-02       STORAGE-AQUEOUS =       2.2073E-04     MST                              
                 WEL =       5.2542E-02                   WEL =       2.7955E-04     SSM_WEL1                         
                 WEL =           0.0000                   WEL =           0.0000     SSM_WEL2                         

           TOTAL OUT =           0.1150             TOTAL OUT =       5.0028E-04

            IN - OUT =      -7.2114E-07              IN - OUT =      -7.5488E-09

 PERCENT DISCREPANCY =          -0.00     PERCENT DISCREPANCY =          -0.00




         TIME SUMMARY AT END OF TIME STEP   15 IN STRESS PERIOD    2
                    SECONDS     MINUTES      HOURS       DAYS        YEARS
                    -----------------------------------------------------------
   TIME STEP LENGTH 1.72800E+05  2880.0      48.000      2.0000     5.47570E-03
 STRESS PERIOD TIME 2.59200E+06  43200.      720.00      30.000     8.21355E-02
         TOTAL TIME 1.98720E+07 3.31200E+05  5520.0      230.00     0.62971    


end timestep


start timestep kper="2" kstp="16" mode="normal"

 UBDSV1 SAVING     FLOW-JA-FACE ON UNIT   1030 AT TIME STEP     16, STRESS PERIOD      2
 UBDSV1 SAVING  STORAGE-AQUEOUS ON UNIT   1030 AT TIME STEP     16, STRESS PERIOD      2
 UBDSV06 SAVING  SOURCE-SINK MIX IN MODEL SVA_TM_T         PACKAGE SVA_TM_T        CONNECTED TO MODEL SVA_TM_T         PACKAGE SSM              ON UNIT   1030 AT TIME STEP     16, STRESS PERIOD      2

 CONCENTRATION WILL BE SAVED ON UNIT 1031 AT END OF TIME STEP   16, STRESS PERIOD    2


  MASS BUDGET FOR ENTIRE MODEL AT END OF TIME STEP   16, STRESS PERIOD   2
  ---------------------------------------------------------------------------------------------------

     CUMULATIVE MASS      M       RATES FOR THIS TIME STEP      M/T          PACKAGE NAME    
     ------------------                 ------------------------                     ----------------

           IN:                                      IN:
           ---                                      ---
     STORAGE-AQUEOUS =       2.3170E-05       STORAGE-AQUEOUS =       2.4013E-07     MST                              
                 WEL =           0.0000                   WEL =           0.0000     SSM_WEL1                         
                 WEL =           0.1160                   WEL =       5.0000E-04     SSM_WEL2                         

            TOTAL IN =           0.1160              TOTAL IN =       5.0024E-04

          OUT:                                     OUT:
          ----                                     ----
     STORAGE-AQUEOUS =       6.2921E-02       STORAGE-AQUEOUS =       2.1969E-04     MST                              
                 WEL =       5.3103E-02                   WEL =       2.8056E-04     SSM_WEL1                         
                 WEL =           0.0000                   WEL =           0.0000     SSM_WEL2                         

           TOTAL OUT =           0.1160             TOTAL OUT =       5.0025E-04

            IN - OUT =      -7.3784E-07              IN - OUT =      -8.3493E-09

 PERCENT DISCREPANCY =          -0.00     PERCENT DISCREPANCY =          -0.00




         TIME SUMMARY AT END OF TIME STEP   16 IN STRESS PERIOD    2
                    SECONDS     MINUTES      HOURS       DAYS        YEARS
                    -----------------------------------------------------------
   TIME STEP LENGTH 1.72800E+05  2880.0      48.000      2.0000     5.47570E-03
 STRESS PERIOD TIME 2.76480E+06  46080.      768.00      32.000     8.76112E-02
         TOTAL TIME 2.00448E+07 3.34080E+05  5568.0      232.00     0.63518    


end timestep


start timestep kper="2" kstp="17" mode="normal"

 UBDSV1 SAVING     FLOW-JA-FACE ON UNIT   1030 AT TIME STEP     17, STRESS PERIOD      2
 UBDSV1 SAVING  STORAGE-AQUEOUS ON UNIT   1030 AT TIME STEP     17, STRESS PERIOD      2
 UBDSV06 SAVING  SOURCE-SINK MIX IN MODEL SVA_TM_T         PACKAGE SVA_TM_T        CONNECTED TO MODEL SVA_TM_T         PACKAGE SSM              ON UNIT   1030 AT TIME STEP     17, STRESS PERIOD      2

 CONCENTRATION WILL BE SAVED ON UNIT 1031 AT END OF TIME STEP   17, STRESS PERIOD    2


  MASS BUDGET FOR ENTIRE MODEL AT END OF TIME STEP   17, STRESS PERIOD   2
  ---------------------------------------------------------------------------------------------------

     CUMULATIVE MASS      M       RATES FOR THIS TIME STEP      M/T          PACKAGE NAME    
     ------------------                 ------------------------                     ----------------

           IN:                                      IN:
           ---                                      ---
     STORAGE-AQUEOUS =       2.3588E-05       STORAGE-AQUEOUS =       2.0879E-07     MST                              
                 WEL =           0.0000                   WEL =           0.0000     SSM_WEL1                         
                 WEL =           0.1170                   WEL =       5.0000E-04     SSM_WEL2                         

            TOTAL IN =           0.1170              TOTAL IN =       5.0021E-04

          OUT:                                     OUT:
          ----                                     ----
     STORAGE-AQUEOUS =       6.3358E-02       STORAGE-AQUEOUS =       2.1868E-04     MST                              
                 WEL =       5.3666E-02                   WEL =       2.8153E-04     SSM_WEL1                         
                 WEL =           0.0000                   WEL =           0.0000     SSM_WEL2                         

           TOTAL OUT =           0.1170             TOTAL OUT =       5.0022E-04

            IN - OUT =      -7.5615E-07              IN - OUT =      -9.1575E-09

 PERCENT DISCREPANCY =          -0.00     PERCENT DISCREPANCY =          -0.00




         TIME SUMMARY AT END OF TIME STEP   17 IN STRESS PERIOD    2
                    SECONDS     MINUTES      HOURS       DAYS        YEARS
                    -----------------------------------------------------------
   TIME STEP LENGTH 1.72800E+05  2880.0      48.000      2.0000     5.47570E-03
 STRESS PERIOD TIME 2.93760E+06  48960.      816.00      34.000     9.30869E-02
         TOTAL TIME 2.02176E+07 3.36960E+05  5616.0      234.00     0.64066    


end timestep


start timestep kper="2" kstp="18" mode="normal"

 UBDSV1 SAVING     FLOW-JA-FACE ON UNIT   1030 AT TIME STEP     18, STRESS PERIOD      2
 UBDSV1 SAVING  STORAGE-AQUEOUS ON UNIT   1030 AT TIME STEP     18, STRESS PERIOD      2
 UBDSV06 SAVING  SOURCE-SINK MIX IN MODEL SVA_TM_T         PACKAGE SVA_TM_T        CONNECTED TO MODEL SVA_TM_T         PACKAGE SSM              ON UNIT   1030 AT TIME STEP     18, STRESS PERIOD      2

 CONCENTRATION WILL BE SAVED ON UNIT 1031 AT END OF TIME STEP   18, STRESS PERIOD    2


  MASS BUDGET FOR ENTIRE MODEL AT END OF TIME STEP   18, STRESS PERIOD   2
  ---------------------------------------------------------------------------------------------------

     CUMULATIVE MASS      M       RATES FOR THIS TIME STEP      M/T          PACKAGE NAME    
     ------------------                 ------------------------                     ----------------

           IN:                                      IN:
           ---                                      ---
     STORAGE-AQUEOUS =       2.3946E-05       STORAGE-AQUEOUS =       1.7892E-07     MST                              
                 WEL =           0.0000                   WEL =           0.0000     SSM_WEL1                         
                 WEL =           0.1180                   WEL =       5.0000E-04     SSM_WEL2                         

            TOTAL IN =           0.1180              TOTAL IN =       5.0018E-04

          OUT:                                     OUT:
          ----                                     ----
     STORAGE-AQUEOUS =       6.3794E-02       STORAGE-AQUEOUS =       2.1773E-04     MST                              
                 WEL =       5.4231E-02                   WEL =       2.8246E-04     SSM_WEL1                         
                 WEL =           0.0000                   WEL =           0.0000     SSM_WEL2                         

           TOTAL OUT =           0.1180             TOTAL OUT =       5.0020E-04

            IN - OUT =      -7.9370E-07              IN - OUT =      -1.8773E-08

 PERCENT DISCREPANCY =          -0.00     PERCENT DISCREPANCY =          -0.00




         TIME SUMMARY AT END OF TIME STEP   18 IN STRESS PERIOD    2
                    SECONDS     MINUTES      HOURS       DAYS        YEARS
                    -----------------------------------------------------------
   TIME STEP LENGTH 1.72800E+05  2880.0      48.000      2.0000     5.47570E-03
 STRESS PERIOD TIME 3.11040E+06  51840.      864.00      36.000     9.85626E-02
         TOTAL TIME 2.03904E+07 3.39840E+05  5664.0      236.00     0.64613    


end timestep


start timestep kper="2" kstp="19" mode="normal"

 UBDSV1 SAVING     FLOW-JA-FACE ON UNIT   1030 AT TIME STEP     19, STRESS PERIOD      2
 UBDSV1 SAVING  STORAGE-AQUEOUS ON UNIT   1030 AT TIME STEP     19, STRESS PERIOD      2
 UBDSV06 SAVING  SOURCE-SINK MIX IN MODEL SVA_TM_T         PACKAGE SVA_TM_T        CONNECTED TO MODEL SVA_TM_T         PACKAGE SSM              ON UNIT   1030 AT TIME STEP     19, STRESS PERIOD      2

 CONCENTRATION WILL BE SAVED ON UNIT 1031 AT END OF TIME STEP   19, STRESS PERIOD    2


  MASS BUDGET FOR ENTIRE MODEL AT END OF TIME STEP   19, STRESS PERIOD   2
  ---------------------------------------------------------------------------------------------------

     CUMULATIVE MASS      M       RATES FOR THIS TIME STEP      M/T          PACKAGE NAME    
     ------------------                 ------------------------                     ----------------

           IN:                                      IN:
           ---                                      ---
     STORAGE-AQUEOUS =       2.4258E-05       STORAGE-AQUEOUS =       1.5603E-07     MST                              
                 WEL =           0.0000                   WEL =           0.0000     SSM_WEL1                         
                 WEL =           0.1190                   WEL =       5.0000E-04     SSM_WEL2                         

            TOTAL IN =           0.1190              TOTAL IN =       5.0016E-04

          OUT:                                     OUT:
          ----                                     ----
     STORAGE-AQUEOUS =       6.4227E-02       STORAGE-AQUEOUS =       2.1682E-04     MST                              
                 WEL =       5.4798E-02                   WEL =       2.8335E-04     SSM_WEL1                         
                 WEL =           0.0000                   WEL =           0.0000     SSM_WEL2                         

           TOTAL OUT =           0.1190             TOTAL OUT =       5.0017E-04

            IN - OUT =      -8.2999E-07              IN - OUT =      -1.8144E-08

 PERCENT DISCREPANCY =          -0.00     PERCENT DISCREPANCY =          -0.00




         TIME SUMMARY AT END OF TIME STEP   19 IN STRESS PERIOD    2
                    SECONDS     MINUTES      HOURS       DAYS        YEARS
                    -----------------------------------------------------------
   TIME STEP LENGTH 1.72800E+05  2880.0      48.000      2.0000     5.47570E-03
 STRESS PERIOD TIME 3.28320E+06  54720.      912.00      38.000     0.10404    
         TOTAL TIME 2.05632E+07 3.42720E+05  5712.0      238.00     0.65161    


end timestep


start timestep kper="2" kstp="20" mode="normal"

 UBDSV1 SAVING     FLOW-JA-FACE ON UNIT   1030 AT TIME STEP     20, STRESS PERIOD      2
 UBDSV1 SAVING  STORAGE-AQUEOUS ON UNIT   1030 AT TIME STEP     20, STRESS PERIOD      2
 UBDSV06 SAVING  SOURCE-SINK MIX IN MODEL SVA_TM_T         PACKAGE SVA_TM_T        CONNECTED TO MODEL SVA_TM_T         PACKAGE SSM              ON UNIT   1030 AT TIME STEP     20, STRESS PERIOD      2

 CONCENTRATION WILL BE SAVED ON UNIT 1031 AT END OF TIME STEP   20, STRESS PERIOD    2


  MASS BUDGET FOR ENTIRE MODEL AT END OF TIME STEP   20, STRESS PERIOD   2
  ---------------------------------------------------------------------------------------------------

     CUMULATIVE MASS      M       RATES FOR THIS TIME STEP      M/T          PACKAGE NAME    
     ------------------                 ------------------------                     ----------------

           IN:                                      IN:
           ---                                      ---
     STORAGE-AQUEOUS =       2.4537E-05       STORAGE-AQUEOUS =       1.3975E-07     MST                              
                 WEL =           0.0000                   WEL =           0.0000     SSM_WEL1                         
                 WEL =           0.1200                   WEL =       5.0000E-04     SSM_WEL2                         

            TOTAL IN =           0.1200              TOTAL IN =       5.0014E-04

          OUT:                                     OUT:
          ----                                     ----
     STORAGE-AQUEOUS =       6.4659E-02       STORAGE-AQUEOUS =       2.1594E-04     MST                              
                 WEL =       5.5366E-02                   WEL =       2.8421E-04     SSM_WEL1                         
                 WEL =           0.0000                   WEL =           0.0000     SSM_WEL2                         

           TOTAL OUT =           0.1200             TOTAL OUT =       5.0015E-04

            IN - OUT =      -8.4363E-07              IN - OUT =      -6.8207E-09

 PERCENT DISCREPANCY =          -0.00     PERCENT DISCREPANCY =          -0.00




         TIME SUMMARY AT END OF TIME STEP   20 IN STRESS PERIOD    2
                    SECONDS     MINUTES      HOURS       DAYS        YEARS
                    -----------------------------------------------------------
   TIME STEP LENGTH 1.72800E+05  2880.0      48.000      2.0000     5.47570E-03
 STRESS PERIOD TIME 3.45600E+06  57600.      960.00      40.000     0.10951    
         TOTAL TIME 2.07360E+07 3.45600E+05  5760.0      240.00     0.65708    


end timestep


start timestep kper="2" kstp="21" mode="normal"

 UBDSV1 SAVING     FLOW-JA-FACE ON UNIT   1030 AT TIME STEP     21, STRESS PERIOD      2
 UBDSV1 SAVING  STORAGE-AQUEOUS ON UNIT   1030 AT TIME STEP     21, STRESS PERIOD      2
 UBDSV06 SAVING  SOURCE-SINK MIX IN MODEL SVA_TM_T         PACKAGE SVA_TM_T        CONNECTED TO MODEL SVA_TM_T         PACKAGE SSM              ON UNIT   1030 AT TIME STEP     21, STRESS PERIOD      2

 CONCENTRATION WILL BE SAVED ON UNIT 1031 AT END OF TIME STEP   21, STRESS PERIOD    2


  MASS BUDGET FOR ENTIRE MODEL AT END OF TIME STEP   21, STRESS PERIOD   2
  ---------------------------------------------------------------------------------------------------

     CUMULATIVE MASS      M       RATES FOR THIS TIME STEP      M/T          PACKAGE NAME    
     ------------------                 ------------------------                     ----------------

           IN:                                      IN:
           ---                                      ---
     STORAGE-AQUEOUS =       2.4784E-05       STORAGE-AQUEOUS =       1.2361E-07     MST                              
                 WEL =           0.0000                   WEL =           0.0000     SSM_WEL1                         
                 WEL =           0.1210                   WEL =       5.0000E-04     SSM_WEL2                         

            TOTAL IN =           0.1210              TOTAL IN =       5.0012E-04

          OUT:                                     OUT:
          ----                                     ----
     STORAGE-AQUEOUS =       6.5090E-02       STORAGE-AQUEOUS =       2.1510E-04     MST                              
                 WEL =       5.5936E-02                   WEL =       2.8503E-04     SSM_WEL1                         
                 WEL =           0.0000                   WEL =           0.0000     SSM_WEL2                         

           TOTAL OUT =           0.1210             TOTAL OUT =       5.0013E-04

            IN - OUT =      -8.5464E-07              IN - OUT =      -5.5037E-09

 PERCENT DISCREPANCY =          -0.00     PERCENT DISCREPANCY =          -0.00




         TIME SUMMARY AT END OF TIME STEP   21 IN STRESS PERIOD    2
                    SECONDS     MINUTES      HOURS       DAYS        YEARS
                    -----------------------------------------------------------
   TIME STEP LENGTH 1.72800E+05  2880.0      48.000      2.0000     5.47570E-03
 STRESS PERIOD TIME 3.62880E+06  60480.      1008.0      42.000     0.11499    
         TOTAL TIME 2.09088E+07 3.48480E+05  5808.0      242.00     0.66256    


end timestep


start timestep kper="2" kstp="22" mode="normal"

 UBDSV1 SAVING     FLOW-JA-FACE ON UNIT   1030 AT TIME STEP     22, STRESS PERIOD      2
 UBDSV1 SAVING  STORAGE-AQUEOUS ON UNIT   1030 AT TIME STEP     22, STRESS PERIOD      2
 UBDSV06 SAVING  SOURCE-SINK MIX IN MODEL SVA_TM_T         PACKAGE SVA_TM_T        CONNECTED TO MODEL SVA_TM_T         PACKAGE SSM              ON UNIT   1030 AT TIME STEP     22, STRESS PERIOD      2

 CONCENTRATION WILL BE SAVED ON UNIT 1031 AT END OF TIME STEP   22, STRESS PERIOD    2


  MASS BUDGET FOR ENTIRE MODEL AT END OF TIME STEP   22, STRESS PERIOD   2
  ---------------------------------------------------------------------------------------------------

     CUMULATIVE MASS      M       RATES FOR THIS TIME STEP      M/T          PACKAGE NAME    
     ------------------                 ------------------------                     ----------------

           IN:                                      IN:
           ---                                      ---
     STORAGE-AQUEOUS =       2.5000E-05       STORAGE-AQUEOUS =       1.0760E-07     MST                              
                 WEL =           0.0000                   WEL =           0.0000     SSM_WEL1                         
                 WEL =           0.1220                   WEL =       5.0000E-04     SSM_WEL2                         

            TOTAL IN =           0.1220              TOTAL IN =       5.0011E-04

          OUT:                                     OUT:
          ----                                     ----
     STORAGE-AQUEOUS =       6.5518E-02       STORAGE-AQUEOUS =       2.1429E-04     MST                              
                 WEL =       5.6508E-02                   WEL =       2.8582E-04     SSM_WEL1                         
                 WEL =           0.0000                   WEL =           0.0000     SSM_WEL2                         

           TOTAL OUT =           0.1220             TOTAL OUT =       5.0011E-04

            IN - OUT =      -8.6486E-07              IN - OUT =      -5.1134E-09

 PERCENT DISCREPANCY =          -0.00     PERCENT DISCREPANCY =          -0.00




         TIME SUMMARY AT END OF TIME STEP   22 IN STRESS PERIOD    2
                    SECONDS     MINUTES      HOURS       DAYS        YEARS
                    -----------------------------------------------------------
   TIME STEP LENGTH 1.72800E+05  2880.0      48.000      2.0000     5.47570E-03
 STRESS PERIOD TIME 3.80160E+06  63360.      1056.0      44.000     0.12047    
         TOTAL TIME 2.10816E+07 3.51360E+05  5856.0      244.00     0.66804    


end timestep


start timestep kper="2" kstp="23" mode="normal"

 UBDSV1 SAVING     FLOW-JA-FACE ON UNIT   1030 AT TIME STEP     23, STRESS PERIOD      2
 UBDSV1 SAVING  STORAGE-AQUEOUS ON UNIT   1030 AT TIME STEP     23, STRESS PERIOD      2
 UBDSV06 SAVING  SOURCE-SINK MIX IN MODEL SVA_TM_T         PACKAGE SVA_TM_T        CONNECTED TO MODEL SVA_TM_T         PACKAGE SSM              ON UNIT   1030 AT TIME STEP     23, STRESS PERIOD      2

 CONCENTRATION WILL BE SAVED ON UNIT 1031 AT END OF TIME STEP   23, STRESS PERIOD    2


  MASS BUDGET FOR ENTIRE MODEL AT END OF TIME STEP   23, STRESS PERIOD   2
  ---------------------------------------------------------------------------------------------------

     CUMULATIVE MASS      M       RATES FOR THIS TIME STEP      M/T          PACKAGE NAME    
     ------------------                 ------------------------                     ----------------

           IN:                                      IN:
           ---                                      ---
     STORAGE-AQUEOUS =       2.5183E-05       STORAGE-AQUEOUS =       9.1713E-08     MST                              
                 WEL =           0.0000                   WEL =           0.0000     SSM_WEL1                         
                 WEL =           0.1230                   WEL =       5.0000E-04     SSM_WEL2                         

            TOTAL IN =           0.1230              TOTAL IN =       5.0009E-04

          OUT:                                     OUT:
          ----                                     ----
     STORAGE-AQUEOUS =       6.5945E-02       STORAGE-AQUEOUS =       2.1352E-04     MST                              
                 WEL =       5.7081E-02                   WEL =       2.8658E-04     SSM_WEL1                         
                 WEL =           0.0000                   WEL =           0.0000     SSM_WEL2                         

           TOTAL OUT =           0.1230             TOTAL OUT =       5.0010E-04

            IN - OUT =      -8.7537E-07              IN - OUT =      -5.2558E-09

 PERCENT DISCREPANCY =          -0.00     PERCENT DISCREPANCY =          -0.00




         TIME SUMMARY AT END OF TIME STEP   23 IN STRESS PERIOD    2
                    SECONDS     MINUTES      HOURS       DAYS        YEARS
                    -----------------------------------------------------------
   TIME STEP LENGTH 1.72800E+05  2880.0      48.000      2.0000     5.47570E-03
 STRESS PERIOD TIME 3.97440E+06  66240.      1104.0      46.000     0.12594    
         TOTAL TIME 2.12544E+07 3.54240E+05  5904.0      246.00     0.67351    


end timestep


start timestep kper="2" kstp="24" mode="normal"

 UBDSV1 SAVING     FLOW-JA-FACE ON UNIT   1030 AT TIME STEP     24, STRESS PERIOD      2
 UBDSV1 SAVING  STORAGE-AQUEOUS ON UNIT   1030 AT TIME STEP     24, STRESS PERIOD      2
 UBDSV06 SAVING  SOURCE-SINK MIX IN MODEL SVA_TM_T         PACKAGE SVA_TM_T        CONNECTED TO MODEL SVA_TM_T         PACKAGE SSM              ON UNIT   1030 AT TIME STEP     24, STRESS PERIOD      2

 CONCENTRATION WILL BE SAVED ON UNIT 1031 AT END OF TIME STEP   24, STRESS PERIOD    2


  MASS BUDGET FOR ENTIRE MODEL AT END OF TIME STEP   24, STRESS PERIOD   2
  ---------------------------------------------------------------------------------------------------

     CUMULATIVE MASS      M       RATES FOR THIS TIME STEP      M/T          PACKAGE NAME    
     ------------------                 ------------------------                     ----------------

           IN:                                      IN:
           ---                                      ---
     STORAGE-AQUEOUS =       2.5348E-05       STORAGE-AQUEOUS =       8.2531E-08     MST                              
                 WEL =           0.0000                   WEL =           0.0000     SSM_WEL1                         
                 WEL =           0.1240                   WEL =       5.0000E-04     SSM_WEL2                         

            TOTAL IN =           0.1240              TOTAL IN =       5.0008E-04

          OUT:                                     OUT:
          ----                                     ----
     STORAGE-AQUEOUS =       6.6371E-02       STORAGE-AQUEOUS =       2.1278E-04     MST                              
                 WEL =       5.7656E-02                   WEL =       2.8731E-04     SSM_WEL1                         
                 WEL =           0.0000                   WEL =           0.0000     SSM_WEL2                         

           TOTAL OUT =           0.1240             TOTAL OUT =       5.0009E-04

            IN - OUT =      -8.8531E-07              IN - OUT =      -4.9703E-09

 PERCENT DISCREPANCY =          -0.00     PERCENT DISCREPANCY =          -0.00




         TIME SUMMARY AT END OF TIME STEP   24 IN STRESS PERIOD    2
                    SECONDS     MINUTES      HOURS       DAYS        YEARS
                    -----------------------------------------------------------
   TIME STEP LENGTH 1.72800E+05  2880.0      48.000      2.0000     5.47570E-03
 STRESS PERIOD TIME 4.14720E+06  69120.      1152.0      48.000     0.13142    
         TOTAL TIME 2.14272E+07 3.57120E+05  5952.0      248.00     0.67899    


end timestep


start timestep kper="2" kstp="25" mode="normal"

 UBDSV1 SAVING     FLOW-JA-FACE ON UNIT   1030 AT TIME STEP     25, STRESS PERIOD      2
 UBDSV1 SAVING  STORAGE-AQUEOUS ON UNIT   1030 AT TIME STEP     25, STRESS PERIOD      2
 UBDSV06 SAVING  SOURCE-SINK MIX IN MODEL SVA_TM_T         PACKAGE SVA_TM_T        CONNECTED TO MODEL SVA_TM_T         PACKAGE SSM              ON UNIT   1030 AT TIME STEP     25, STRESS PERIOD      2

 CONCENTRATION WILL BE SAVED ON UNIT 1031 AT END OF TIME STEP   25, STRESS PERIOD    2


  MASS BUDGET FOR ENTIRE MODEL AT END OF TIME STEP   25, STRESS PERIOD   2
  ---------------------------------------------------------------------------------------------------

     CUMULATIVE MASS      M       RATES FOR THIS TIME STEP      M/T          PACKAGE NAME    
     ------------------                 ------------------------                     ----------------

           IN:                                      IN:
           ---                                      ---
     STORAGE-AQUEOUS =       2.5495E-05       STORAGE-AQUEOUS =       7.3508E-08     MST                              
                 WEL =           0.0000                   WEL =           0.0000     SSM_WEL1                         
                 WEL =           0.1250                   WEL =       5.0000E-04     SSM_WEL2                         

            TOTAL IN =           0.1250              TOTAL IN =       5.0007E-04

          OUT:                                     OUT:
          ----                                     ----
     STORAGE-AQUEOUS =       6.6795E-02       STORAGE-AQUEOUS =       2.1206E-04     MST                              
                 WEL =       5.8232E-02                   WEL =       2.8802E-04     SSM_WEL1                         
                 WEL =           0.0000                   WEL =           0.0000     SSM_WEL2                         

           TOTAL OUT =           0.1250             TOTAL OUT =       5.0008E-04

            IN - OUT =      -8.9763E-07              IN - OUT =      -6.1591E-09

 PERCENT DISCREPANCY =          -0.00     PERCENT DISCREPANCY =          -0.00




         TIME SUMMARY AT END OF TIME STEP   25 IN STRESS PERIOD    2
                    SECONDS     MINUTES      HOURS       DAYS        YEARS
                    -----------------------------------------------------------
   TIME STEP LENGTH 1.72800E+05  2880.0      48.000      2.0000     5.47570E-03
 STRESS PERIOD TIME 4.32000E+06  72000.      1200.0      50.000     0.13689    
         TOTAL TIME 2.16000E+07 3.60000E+05  6000.0      250.00     0.68446    


end timestep


start timestep kper="2" kstp="26" mode="normal"

 UBDSV1 SAVING     FLOW-JA-FACE ON UNIT   1030 AT TIME STEP     26, STRESS PERIOD      2
 UBDSV1 SAVING  STORAGE-AQUEOUS ON UNIT   1030 AT TIME STEP     26, STRESS PERIOD      2
 UBDSV06 SAVING  SOURCE-SINK MIX IN MODEL SVA_TM_T         PACKAGE SVA_TM_T        CONNECTED TO MODEL SVA_TM_T         PACKAGE SSM              ON UNIT   1030 AT TIME STEP     26, STRESS PERIOD      2

 CONCENTRATION WILL BE SAVED ON UNIT 1031 AT END OF TIME STEP   26, STRESS PERIOD    2


  MASS BUDGET FOR ENTIRE MODEL AT END OF TIME STEP   26, STRESS PERIOD   2
  ---------------------------------------------------------------------------------------------------

     CUMULATIVE MASS      M       RATES FOR THIS TIME STEP      M/T          PACKAGE NAME    
     ------------------                 ------------------------                     ----------------

           IN:                                      IN:
           ---                                      ---
     STORAGE-AQUEOUS =       2.5624E-05       STORAGE-AQUEOUS =       6.4481E-08     MST                              
                 WEL =           0.0000                   WEL =           0.0000     SSM_WEL1                         
                 WEL =           0.1260                   WEL =       5.0000E-04     SSM_WEL2                         

            TOTAL IN =           0.1260              TOTAL IN =       5.0006E-04

          OUT:                                     OUT:
          ----                                     ----
     STORAGE-AQUEOUS =       6.7218E-02       STORAGE-AQUEOUS =       2.1138E-04     MST                              
                 WEL =       5.8809E-02                   WEL =       2.8869E-04     SSM_WEL1                         
                 WEL =           0.0000                   WEL =           0.0000     SSM_WEL2                         

           TOTAL OUT =           0.1260             TOTAL OUT =       5.0007E-04

            IN - OUT =      -9.1256E-07              IN - OUT =      -7.4630E-09

 PERCENT DISCREPANCY =          -0.00     PERCENT DISCREPANCY =          -0.00




         TIME SUMMARY AT END OF TIME STEP   26 IN STRESS PERIOD    2
                    SECONDS     MINUTES      HOURS       DAYS        YEARS
                    -----------------------------------------------------------
   TIME STEP LENGTH 1.72800E+05  2880.0      48.000      2.0000     5.47570E-03
 STRESS PERIOD TIME 4.49280E+06  74880.      1248.0      52.000     0.14237    
         TOTAL TIME 2.17728E+07 3.62880E+05  6048.0      252.00     0.68994    


end timestep


start timestep kper="2" kstp="27" mode="normal"

 UBDSV1 SAVING     FLOW-JA-FACE ON UNIT   1030 AT TIME STEP     27, STRESS PERIOD      2
 UBDSV1 SAVING  STORAGE-AQUEOUS ON UNIT   1030 AT TIME STEP     27, STRESS PERIOD      2
 UBDSV06 SAVING  SOURCE-SINK MIX IN MODEL SVA_TM_T         PACKAGE SVA_TM_T        CONNECTED TO MODEL SVA_TM_T         PACKAGE SSM              ON UNIT   1030 AT TIME STEP     27, STRESS PERIOD      2

 CONCENTRATION WILL BE SAVED ON UNIT 1031 AT END OF TIME STEP   27, STRESS PERIOD    2


  MASS BUDGET FOR ENTIRE MODEL AT END OF TIME STEP   27, STRESS PERIOD   2
  ---------------------------------------------------------------------------------------------------

     CUMULATIVE MASS      M       RATES FOR THIS TIME STEP      M/T          PACKAGE NAME    
     ------------------                 ------------------------                     ----------------

           IN:                                      IN:
           ---                                      ---
     STORAGE-AQUEOUS =       2.5735E-05       STORAGE-AQUEOUS =       5.5445E-08     MST                              
                 WEL =           0.0000                   WEL =           0.0000     SSM_WEL1                         
                 WEL =           0.1270                   WEL =       5.0000E-04     SSM_WEL2                         

            TOTAL IN =           0.1270              TOTAL IN =       5.0006E-04

          OUT:                                     OUT:
          ----                                     ----
     STORAGE-AQUEOUS =       6.7639E-02       STORAGE-AQUEOUS =       2.1071E-04     MST                              
                 WEL =       5.9388E-02                   WEL =       2.8935E-04     SSM_WEL1                         
                 WEL =           0.0000                   WEL =           0.0000     SSM_WEL2                         

           TOTAL OUT =           0.1270             TOTAL OUT =       5.0006E-04

            IN - OUT =      -9.2952E-07              IN - OUT =      -8.4825E-09

 PERCENT DISCREPANCY =          -0.00     PERCENT DISCREPANCY =          -0.00




         TIME SUMMARY AT END OF TIME STEP   27 IN STRESS PERIOD    2
                    SECONDS     MINUTES      HOURS       DAYS        YEARS
                    -----------------------------------------------------------
   TIME STEP LENGTH 1.72800E+05  2880.0      48.000      2.0000     5.47570E-03
 STRESS PERIOD TIME 4.66560E+06  77760.      1296.0      54.000     0.14784    
         TOTAL TIME 2.19456E+07 3.65760E+05  6096.0      254.00     0.69541    


end timestep


start timestep kper="2" kstp="28" mode="normal"

 UBDSV1 SAVING     FLOW-JA-FACE ON UNIT   1030 AT TIME STEP     28, STRESS PERIOD      2
 UBDSV1 SAVING  STORAGE-AQUEOUS ON UNIT   1030 AT TIME STEP     28, STRESS PERIOD      2
 UBDSV06 SAVING  SOURCE-SINK MIX IN MODEL SVA_TM_T         PACKAGE SVA_TM_T        CONNECTED TO MODEL SVA_TM_T         PACKAGE SSM              ON UNIT   1030 AT TIME STEP     28, STRESS PERIOD      2

 CONCENTRATION WILL BE SAVED ON UNIT 1031 AT END OF TIME STEP   28, STRESS PERIOD    2


  MASS BUDGET FOR ENTIRE MODEL AT END OF TIME STEP   28, STRESS PERIOD   2
  ---------------------------------------------------------------------------------------------------

     CUMULATIVE MASS      M       RATES FOR THIS TIME STEP      M/T          PACKAGE NAME    
     ------------------                 ------------------------                     ----------------

           IN:                                      IN:
           ---                                      ---
     STORAGE-AQUEOUS =       2.5828E-05       STORAGE-AQUEOUS =       4.6412E-08     MST                              
                 WEL =           0.0000                   WEL =           0.0000     SSM_WEL1                         
                 WEL =           0.1280                   WEL =       5.0000E-04     SSM_WEL2                         

            TOTAL IN =           0.1280              TOTAL IN =       5.0005E-04

          OUT:                                     OUT:
          ----                                     ----
     STORAGE-AQUEOUS =       6.8059E-02       STORAGE-AQUEOUS =       2.1007E-04     MST                              
                 WEL =       5.9968E-02                   WEL =       2.8999E-04     SSM_WEL1                         
                 WEL =           0.0000                   WEL =           0.0000     SSM_WEL2                         

           TOTAL OUT =           0.1280             TOTAL OUT =       5.0006E-04

            IN - OUT =      -9.4781E-07              IN - OUT =      -9.1443E-09

 PERCENT DISCREPANCY =          -0.00     PERCENT DISCREPANCY =          -0.00




         TIME SUMMARY AT END OF TIME STEP   28 IN STRESS PERIOD    2
                    SECONDS     MINUTES      HOURS       DAYS        YEARS
                    -----------------------------------------------------------
   TIME STEP LENGTH 1.72800E+05  2880.0      48.000      2.0000     5.47570E-03
 STRESS PERIOD TIME 4.83840E+06  80640.      1344.0      56.000     0.15332    
         TOTAL TIME 2.21184E+07 3.68640E+05  6144.0      256.00     0.70089    


end timestep


start timestep kper="2" kstp="29" mode="normal"

 UBDSV1 SAVING     FLOW-JA-FACE ON UNIT   1030 AT TIME STEP     29, STRESS PERIOD      2
 UBDSV1 SAVING  STORAGE-AQUEOUS ON UNIT   1030 AT TIME STEP     29, STRESS PERIOD      2
 UBDSV06 SAVING  SOURCE-SINK MIX IN MODEL SVA_TM_T         PACKAGE SVA_TM_T        CONNECTED TO MODEL SVA_TM_T         PACKAGE SSM              ON UNIT   1030 AT TIME STEP     29, STRESS PERIOD      2

 CONCENTRATION WILL BE SAVED ON UNIT 1031 AT END OF TIME STEP   29, STRESS PERIOD    2


  MASS BUDGET FOR ENTIRE MODEL AT END OF TIME STEP   29, STRESS PERIOD   2
  ---------------------------------------------------------------------------------------------------

     CUMULATIVE MASS      M       RATES FOR THIS TIME STEP      M/T          PACKAGE NAME    
     ------------------                 ------------------------                     ----------------

           IN:                                      IN:
           ---                                      ---
     STORAGE-AQUEOUS =       2.5902E-05       STORAGE-AQUEOUS =       3.7375E-08     MST                              
                 WEL =           0.0000                   WEL =           0.0000     SSM_WEL1                         
                 WEL =           0.1290                   WEL =       5.0000E-04     SSM_WEL2                         

            TOTAL IN =           0.1290              TOTAL IN =       5.0004E-04

          OUT:                                     OUT:
          ----                                     ----
     STORAGE-AQUEOUS =       6.8478E-02       STORAGE-AQUEOUS =       2.0944E-04     MST                              
                 WEL =       6.0549E-02                   WEL =       2.9060E-04     SSM_WEL1                         
                 WEL =           0.0000                   WEL =           0.0000     SSM_WEL2                         

           TOTAL OUT =           0.1290             TOTAL OUT =       5.0005E-04

            IN - OUT =      -9.6637E-07              IN - OUT =      -9.2787E-09

 PERCENT DISCREPANCY =          -0.00     PERCENT DISCREPANCY =          -0.00




         TIME SUMMARY AT END OF TIME STEP   29 IN STRESS PERIOD    2
                    SECONDS     MINUTES      HOURS       DAYS        YEARS
                    -----------------------------------------------------------
   TIME STEP LENGTH 1.72800E+05  2880.0      48.000      2.0000     5.47570E-03
 STRESS PERIOD TIME 5.01120E+06  83520.      1392.0      58.000     0.15880    
         TOTAL TIME 2.22912E+07 3.71520E+05  6192.0      258.00     0.70637    


end timestep


start timestep kper="2" kstp="30" mode="normal"

 UBDSV1 SAVING     FLOW-JA-FACE ON UNIT   1030 AT TIME STEP     30, STRESS PERIOD      2
 UBDSV1 SAVING  STORAGE-AQUEOUS ON UNIT   1030 AT TIME STEP     30, STRESS PERIOD      2
 UBDSV06 SAVING  SOURCE-SINK MIX IN MODEL SVA_TM_T         PACKAGE SVA_TM_T        CONNECTED TO MODEL SVA_TM_T         PACKAGE SSM              ON UNIT   1030 AT TIME STEP     30, STRESS PERIOD      2

 CONCENTRATION WILL BE SAVED ON UNIT 1031 AT END OF TIME STEP   30, STRESS PERIOD    2


  MASS BUDGET FOR ENTIRE MODEL AT END OF TIME STEP   30, STRESS PERIOD   2
  ---------------------------------------------------------------------------------------------------

     CUMULATIVE MASS      M       RATES FOR THIS TIME STEP      M/T          PACKAGE NAME    
     ------------------                 ------------------------                     ----------------

           IN:                                      IN:
           ---                                      ---
     STORAGE-AQUEOUS =       2.5959E-05       STORAGE-AQUEOUS =       2.8336E-08     MST                              
                 WEL =           0.0000                   WEL =           0.0000     SSM_WEL1                         
                 WEL =           0.1300                   WEL =       5.0000E-04     SSM_WEL2                         

            TOTAL IN =           0.1300              TOTAL IN =       5.0003E-04

          OUT:                                     OUT:
          ----                                     ----
     STORAGE-AQUEOUS =       6.8896E-02       STORAGE-AQUEOUS =       2.0883E-04     MST                              
                 WEL =       6.1131E-02                   WEL =       2.9120E-04     SSM_WEL1                         
                 WEL =           0.0000                   WEL =           0.0000     SSM_WEL2                         

           TOTAL OUT =           0.1300             TOTAL OUT =       5.0004E-04

            IN - OUT =      -9.8433E-07              IN - OUT =      -8.9813E-09

 PERCENT DISCREPANCY =          -0.00     PERCENT DISCREPANCY =          -0.00




         TIME SUMMARY AT END OF TIME STEP   30 IN STRESS PERIOD    2
                    SECONDS     MINUTES      HOURS       DAYS        YEARS
                    -----------------------------------------------------------
   TIME STEP LENGTH 1.72800E+05  2880.0      48.000      2.0000     5.47570E-03
 STRESS PERIOD TIME 5.18400E+06  86400.      1440.0      60.000     0.16427    
         TOTAL TIME 2.24640E+07 3.74400E+05  6240.0      260.00     0.71184    


end timestep


start timestep kper="2" kstp="31" mode="normal"

 UBDSV1 SAVING     FLOW-JA-FACE ON UNIT   1030 AT TIME STEP     31, STRESS PERIOD      2
 UBDSV1 SAVING  STORAGE-AQUEOUS ON UNIT   1030 AT TIME STEP     31, STRESS PERIOD      2
 UBDSV06 SAVING  SOURCE-SINK MIX IN MODEL SVA_TM_T         PACKAGE SVA_TM_T        CONNECTED TO MODEL SVA_TM_T         PACKAGE SSM              ON UNIT   1030 AT TIME STEP     31, STRESS PERIOD      2

 CONCENTRATION WILL BE SAVED ON UNIT 1031 AT END OF TIME STEP   31, STRESS PERIOD    2


  MASS BUDGET FOR ENTIRE MODEL AT END OF TIME STEP   31, STRESS PERIOD   2
  ---------------------------------------------------------------------------------------------------

     CUMULATIVE MASS      M       RATES FOR THIS TIME STEP      M/T          PACKAGE NAME    
     ------------------                 ------------------------                     ----------------

           IN:                                      IN:
           ---                                      ---
     STORAGE-AQUEOUS =       2.5998E-05       STORAGE-AQUEOUS =       1.9609E-08     MST                              
                 WEL =           0.0000                   WEL =           0.0000     SSM_WEL1                         
                 WEL =           0.1310                   WEL =       5.0000E-04     SSM_WEL2                         

            TOTAL IN =           0.1310              TOTAL IN =       5.0002E-04

          OUT:                                     OUT:
          ----                                     ----
     STORAGE-AQUEOUS =       6.9312E-02       STORAGE-AQUEOUS =       2.0824E-04     MST                              
                 WEL =       6.1715E-02                   WEL =       2.9179E-04     SSM_WEL1                         
                 WEL =           0.0000                   WEL =           0.0000     SSM_WEL2                         

           TOTAL OUT =           0.1310             TOTAL OUT =       5.0003E-04

            IN - OUT =      -1.0126E-06              IN - OUT =      -1.4136E-08

 PERCENT DISCREPANCY =          -0.00     PERCENT DISCREPANCY =          -0.00




         TIME SUMMARY AT END OF TIME STEP   31 IN STRESS PERIOD    2
                    SECONDS     MINUTES      HOURS       DAYS        YEARS
                    -----------------------------------------------------------
   TIME STEP LENGTH 1.72800E+05  2880.0      48.000      2.0000     5.47570E-03
 STRESS PERIOD TIME 5.35680E+06  89280.      1488.0      62.000     0.16975    
         TOTAL TIME 2.26368E+07 3.77280E+05  6288.0      262.00     0.71732    


end timestep


start timestep kper="2" kstp="32" mode="normal"

 UBDSV1 SAVING     FLOW-JA-FACE ON UNIT   1030 AT TIME STEP     32, STRESS PERIOD      2
 UBDSV1 SAVING  STORAGE-AQUEOUS ON UNIT   1030 AT TIME STEP     32, STRESS PERIOD      2
 UBDSV06 SAVING  SOURCE-SINK MIX IN MODEL SVA_TM_T         PACKAGE SVA_TM_T        CONNECTED TO MODEL SVA_TM_T         PACKAGE SSM              ON UNIT   1030 AT TIME STEP     32, STRESS PERIOD      2

 CONCENTRATION WILL BE SAVED ON UNIT 1031 AT END OF TIME STEP   32, STRESS PERIOD    2


  MASS BUDGET FOR ENTIRE MODEL AT END OF TIME STEP   32, STRESS PERIOD   2
  ---------------------------------------------------------------------------------------------------

     CUMULATIVE MASS      M       RATES FOR THIS TIME STEP      M/T          PACKAGE NAME    
     ------------------                 ------------------------                     ----------------

           IN:                                      IN:
           ---                                      ---
     STORAGE-AQUEOUS =       2.6019E-05       STORAGE-AQUEOUS =       1.0255E-08     MST                              
                 WEL =           0.0000                   WEL =           0.0000     SSM_WEL1                         
                 WEL =           0.1320                   WEL =       5.0000E-04     SSM_WEL2                         

            TOTAL IN =           0.1320              TOTAL IN =       5.0001E-04

          OUT:                                     OUT:
          ----                                     ----
     STORAGE-AQUEOUS =       6.9728E-02       STORAGE-AQUEOUS =       2.0766E-04     MST                              
                 WEL =       6.2300E-02                   WEL =       2.9236E-04     SSM_WEL1                         
                 WEL =           0.0000                   WEL =           0.0000     SSM_WEL2                         

           TOTAL OUT =           0.1320             TOTAL OUT =       5.0002E-04

            IN - OUT =      -1.0400E-06              IN - OUT =      -1.3713E-08

 PERCENT DISCREPANCY =          -0.00     PERCENT DISCREPANCY =          -0.00




         TIME SUMMARY AT END OF TIME STEP   32 IN STRESS PERIOD    2
                    SECONDS     MINUTES      HOURS       DAYS        YEARS
                    -----------------------------------------------------------
   TIME STEP LENGTH 1.72800E+05  2880.0      48.000      2.0000     5.47570E-03
 STRESS PERIOD TIME 5.52960E+06  92160.      1536.0      64.000     0.17522    
         TOTAL TIME 2.28096E+07 3.80160E+05  6336.0      264.00     0.72279    


end timestep


start timestep kper="2" kstp="33" mode="normal"

 UBDSV1 SAVING     FLOW-JA-FACE ON UNIT   1030 AT TIME STEP     33, STRESS PERIOD      2
 UBDSV1 SAVING  STORAGE-AQUEOUS ON UNIT   1030 AT TIME STEP     33, STRESS PERIOD      2
 UBDSV06 SAVING  SOURCE-SINK MIX IN MODEL SVA_TM_T         PACKAGE SVA_TM_T        CONNECTED TO MODEL SVA_TM_T         PACKAGE SSM              ON UNIT   1030 AT TIME STEP     33, STRESS PERIOD      2

 CONCENTRATION WILL BE SAVED ON UNIT 1031 AT END OF TIME STEP   33, STRESS PERIOD    2


  MASS BUDGET FOR ENTIRE MODEL AT END OF TIME STEP   33, STRESS PERIOD   2
  ---------------------------------------------------------------------------------------------------

     CUMULATIVE MASS      M       RATES FOR THIS TIME STEP      M/T          PACKAGE NAME    
     ------------------                 ------------------------                     ----------------

           IN:                                      IN:
           ---                                      ---
     STORAGE-AQUEOUS =       2.6021E-05       STORAGE-AQUEOUS =       1.2186E-09     MST                              
                 WEL =           0.0000                   WEL =           0.0000     SSM_WEL1                         
                 WEL =           0.1330                   WEL =       5.0000E-04     SSM_WEL2                         

            TOTAL IN =           0.1330              TOTAL IN =       5.0000E-04

          OUT:                                     OUT:
          ----                                     ----
     STORAGE-AQUEOUS =       7.0142E-02       STORAGE-AQUEOUS =       2.0710E-04     MST                              
                 WEL =       6.2885E-02                   WEL =       2.9292E-04     SSM_WEL1                         
                 WEL =           0.0000                   WEL =           0.0000     SSM_WEL2                         

           TOTAL OUT =           0.1330             TOTAL OUT =       5.0001E-04

            IN - OUT =      -1.0669E-06              IN - OUT =      -1.3439E-08

 PERCENT DISCREPANCY =          -0.00     PERCENT DISCREPANCY =          -0.00




         TIME SUMMARY AT END OF TIME STEP   33 IN STRESS PERIOD    2
                    SECONDS     MINUTES      HOURS       DAYS        YEARS
                    -----------------------------------------------------------
   TIME STEP LENGTH 1.72800E+05  2880.0      48.000      2.0000     5.47570E-03
 STRESS PERIOD TIME 5.70240E+06  95040.      1584.0      66.000     0.18070    
         TOTAL TIME 2.29824E+07 3.83040E+05  6384.0      266.00     0.72827    


end timestep


start timestep kper="2" kstp="34" mode="normal"

 UBDSV1 SAVING     FLOW-JA-FACE ON UNIT   1030 AT TIME STEP     34, STRESS PERIOD      2
 UBDSV1 SAVING  STORAGE-AQUEOUS ON UNIT   1030 AT TIME STEP     34, STRESS PERIOD      2
 UBDSV06 SAVING  SOURCE-SINK MIX IN MODEL SVA_TM_T         PACKAGE SVA_TM_T        CONNECTED TO MODEL SVA_TM_T         PACKAGE SSM              ON UNIT   1030 AT TIME STEP     34, STRESS PERIOD      2

 CONCENTRATION WILL BE SAVED ON UNIT 1031 AT END OF TIME STEP   34, STRESS PERIOD    2


  MASS BUDGET FOR ENTIRE MODEL AT END OF TIME STEP   34, STRESS PERIOD   2
  ---------------------------------------------------------------------------------------------------

     CUMULATIVE MASS      M       RATES FOR THIS TIME STEP      M/T          PACKAGE NAME    
     ------------------                 ------------------------                     ----------------

           IN:                                      IN:
           ---                                      ---
     STORAGE-AQUEOUS =       2.6021E-05       STORAGE-AQUEOUS =       1.8234E-12     MST                              
                 WEL =           0.0000                   WEL =           0.0000     SSM_WEL1                         
                 WEL =           0.1340                   WEL =       5.0000E-04     SSM_WEL2                         

            TOTAL IN =           0.1340              TOTAL IN =       5.0000E-04

          OUT:                                     OUT:
          ----                                     ----
     STORAGE-AQUEOUS =       7.0555E-02       STORAGE-AQUEOUS =       2.0655E-04     MST                              
                 WEL =       6.3472E-02                   WEL =       2.9346E-04     SSM_WEL1                         
                 WEL =           0.0000                   WEL =           0.0000     SSM_WEL2                         

           TOTAL OUT =           0.1340             TOTAL OUT =       5.0001E-04

            IN - OUT =      -1.0933E-06              IN - OUT =      -1.3186E-08

 PERCENT DISCREPANCY =          -0.00     PERCENT DISCREPANCY =          -0.00




         TIME SUMMARY AT END OF TIME STEP   34 IN STRESS PERIOD    2
                    SECONDS     MINUTES      HOURS       DAYS        YEARS
                    -----------------------------------------------------------
   TIME STEP LENGTH 1.72800E+05  2880.0      48.000      2.0000     5.47570E-03
 STRESS PERIOD TIME 5.87520E+06  97920.      1632.0      68.000     0.18617    
         TOTAL TIME 2.31552E+07 3.85920E+05  6432.0      268.00     0.73374    


end timestep


start timestep kper="2" kstp="35" mode="normal"

 UBDSV1 SAVING     FLOW-JA-FACE ON UNIT   1030 AT TIME STEP     35, STRESS PERIOD      2
 UBDSV1 SAVING  STORAGE-AQUEOUS ON UNIT   1030 AT TIME STEP     35, STRESS PERIOD      2
 UBDSV06 SAVING  SOURCE-SINK MIX IN MODEL SVA_TM_T         PACKAGE SVA_TM_T        CONNECTED TO MODEL SVA_TM_T         PACKAGE SSM              ON UNIT   1030 AT TIME STEP     35, STRESS PERIOD      2

 CONCENTRATION WILL BE SAVED ON UNIT 1031 AT END OF TIME STEP   35, STRESS PERIOD    2


  MASS BUDGET FOR ENTIRE MODEL AT END OF TIME STEP   35, STRESS PERIOD   2
  ---------------------------------------------------------------------------------------------------

     CUMULATIVE MASS      M       RATES FOR THIS TIME STEP      M/T          PACKAGE NAME    
     ------------------                 ------------------------                     ----------------

           IN:                                      IN:
           ---                                      ---
     STORAGE-AQUEOUS =       2.6021E-05       STORAGE-AQUEOUS =       1.6604E-12     MST                              
                 WEL =           0.0000                   WEL =           0.0000     SSM_WEL1                         
                 WEL =           0.1350                   WEL =       5.0000E-04     SSM_WEL2                         

            TOTAL IN =           0.1350              TOTAL IN =       5.0000E-04

          OUT:                                     OUT:
          ----                                     ----
     STORAGE-AQUEOUS =       7.0967E-02       STORAGE-AQUEOUS =       2.0602E-04     MST                              
                 WEL =       6.4060E-02                   WEL =       2.9399E-04     SSM_WEL1                         
                 WEL =           0.0000                   WEL =           0.0000     SSM_WEL2                         

           TOTAL OUT =           0.1350             TOTAL OUT =       5.0001E-04

            IN - OUT =      -1.1191E-06              IN - OUT =      -1.2931E-08

 PERCENT DISCREPANCY =          -0.00     PERCENT DISCREPANCY =          -0.00




         TIME SUMMARY AT END OF TIME STEP   35 IN STRESS PERIOD    2
                    SECONDS     MINUTES      HOURS       DAYS        YEARS
                    -----------------------------------------------------------
   TIME STEP LENGTH 1.72800E+05  2880.0      48.000      2.0000     5.47570E-03
 STRESS PERIOD TIME 6.04800E+06 1.00800E+05  1680.0      70.000     0.19165    
         TOTAL TIME 2.33280E+07 3.88800E+05  6480.0      270.00     0.73922    


end timestep


start timestep kper="2" kstp="36" mode="normal"

 UBDSV1 SAVING     FLOW-JA-FACE ON UNIT   1030 AT TIME STEP     36, STRESS PERIOD      2
 UBDSV1 SAVING  STORAGE-AQUEOUS ON UNIT   1030 AT TIME STEP     36, STRESS PERIOD      2
 UBDSV06 SAVING  SOURCE-SINK MIX IN MODEL SVA_TM_T         PACKAGE SVA_TM_T        CONNECTED TO MODEL SVA_TM_T         PACKAGE SSM              ON UNIT   1030 AT TIME STEP     36, STRESS PERIOD      2

 CONCENTRATION WILL BE SAVED ON UNIT 1031 AT END OF TIME STEP   36, STRESS PERIOD    2


  MASS BUDGET FOR ENTIRE MODEL AT END OF TIME STEP   36, STRESS PERIOD   2
  ---------------------------------------------------------------------------------------------------

     CUMULATIVE MASS      M       RATES FOR THIS TIME STEP      M/T          PACKAGE NAME    
     ------------------                 ------------------------                     ----------------

           IN:                                      IN:
           ---                                      ---
     STORAGE-AQUEOUS =       2.6021E-05       STORAGE-AQUEOUS =       1.5386E-12     MST                              
                 WEL =           0.0000                   WEL =           0.0000     SSM_WEL1                         
                 WEL =           0.1360                   WEL =       5.0000E-04     SSM_WEL2                         

            TOTAL IN =           0.1360              TOTAL IN =       5.0000E-04

          OUT:                                     OUT:
          ----                                     ----
     STORAGE-AQUEOUS =       7.1378E-02       STORAGE-AQUEOUS =       2.0550E-04     MST                              
                 WEL =       6.4649E-02                   WEL =       2.9451E-04     SSM_WEL1                         
                 WEL =           0.0000                   WEL =           0.0000     SSM_WEL2                         

           TOTAL OUT =           0.1360             TOTAL OUT =       5.0001E-04

            IN - OUT =      -1.1445E-06              IN - OUT =      -1.2703E-08

 PERCENT DISCREPANCY =          -0.00     PERCENT DISCREPANCY =          -0.00




         TIME SUMMARY AT END OF TIME STEP   36 IN STRESS PERIOD    2
                    SECONDS     MINUTES      HOURS       DAYS        YEARS
                    -----------------------------------------------------------
   TIME STEP LENGTH 1.72800E+05  2880.0      48.000      2.0000     5.47570E-03
 STRESS PERIOD TIME 6.22080E+06 1.03680E+05  1728.0      72.000     0.19713    
         TOTAL TIME 2.35008E+07 3.91680E+05  6528.0      272.00     0.74470    


end timestep


start timestep kper="2" kstp="37" mode="normal"

 UBDSV1 SAVING     FLOW-JA-FACE ON UNIT   1030 AT TIME STEP     37, STRESS PERIOD      2
 UBDSV1 SAVING  STORAGE-AQUEOUS ON UNIT   1030 AT TIME STEP     37, STRESS PERIOD      2
 UBDSV06 SAVING  SOURCE-SINK MIX IN MODEL SVA_TM_T         PACKAGE SVA_TM_T        CONNECTED TO MODEL SVA_TM_T         PACKAGE SSM              ON UNIT   1030 AT TIME STEP     37, STRESS PERIOD      2

 CONCENTRATION WILL BE SAVED ON UNIT 1031 AT END OF TIME STEP   37, STRESS PERIOD    2


  MASS BUDGET FOR ENTIRE MODEL AT END OF TIME STEP   37, STRESS PERIOD   2
  ---------------------------------------------------------------------------------------------------

     CUMULATIVE MASS      M       RATES FOR THIS TIME STEP      M/T          PACKAGE NAME    
     ------------------                 ------------------------                     ----------------

           IN:                                      IN:
           ---                                      ---
     STORAGE-AQUEOUS =       2.6021E-05       STORAGE-AQUEOUS =       1.4225E-12     MST                              
                 WEL =           0.0000                   WEL =           0.0000     SSM_WEL1                         
                 WEL =           0.1370                   WEL =       5.0000E-04     SSM_WEL2                         

            TOTAL IN =           0.1370              TOTAL IN =       5.0000E-04

          OUT:                                     OUT:
          ----                                     ----
     STORAGE-AQUEOUS =       7.1788E-02       STORAGE-AQUEOUS =       2.0499E-04     MST                              
                 WEL =       6.5239E-02                   WEL =       2.9502E-04     SSM_WEL1                         
                 WEL =           0.0000                   WEL =           0.0000     SSM_WEL2                         

           TOTAL OUT =           0.1370             TOTAL OUT =       5.0001E-04

            IN - OUT =      -1.1695E-06              IN - OUT =      -1.2478E-08

 PERCENT DISCREPANCY =          -0.00     PERCENT DISCREPANCY =          -0.00




         TIME SUMMARY AT END OF TIME STEP   37 IN STRESS PERIOD    2
                    SECONDS     MINUTES      HOURS       DAYS        YEARS
                    -----------------------------------------------------------
   TIME STEP LENGTH 1.72800E+05  2880.0      48.000      2.0000     5.47570E-03
 STRESS PERIOD TIME 6.39360E+06 1.06560E+05  1776.0      74.000     0.20260    
         TOTAL TIME 2.36736E+07 3.94560E+05  6576.0      274.00     0.75017    


end timestep


start timestep kper="2" kstp="38" mode="normal"

 UBDSV1 SAVING     FLOW-JA-FACE ON UNIT   1030 AT TIME STEP     38, STRESS PERIOD      2
 UBDSV1 SAVING  STORAGE-AQUEOUS ON UNIT   1030 AT TIME STEP     38, STRESS PERIOD      2
 UBDSV06 SAVING  SOURCE-SINK MIX IN MODEL SVA_TM_T         PACKAGE SVA_TM_T        CONNECTED TO MODEL SVA_TM_T         PACKAGE SSM              ON UNIT   1030 AT TIME STEP     38, STRESS PERIOD      2

 CONCENTRATION WILL BE SAVED ON UNIT 1031 AT END OF TIME STEP   38, STRESS PERIOD    2


  MASS BUDGET FOR ENTIRE MODEL AT END OF TIME STEP   38, STRESS PERIOD   2
  ---------------------------------------------------------------------------------------------------

     CUMULATIVE MASS      M       RATES FOR THIS TIME STEP      M/T          PACKAGE NAME    
     ------------------                 ------------------------                     ----------------

           IN:                                      IN:
           ---                                      ---
     STORAGE-AQUEOUS =       2.6021E-05       STORAGE-AQUEOUS =       1.3137E-12     MST                              
                 WEL =           0.0000                   WEL =           0.0000     SSM_WEL1                         
                 WEL =           0.1380                   WEL =       5.0000E-04     SSM_WEL2                         

            TOTAL IN =           0.1380              TOTAL IN =       5.0000E-04

          OUT:                                     OUT:
          ----                                     ----
     STORAGE-AQUEOUS =       7.2197E-02       STORAGE-AQUEOUS =       2.0449E-04     MST                              
                 WEL =       6.5830E-02                   WEL =       2.9552E-04     SSM_WEL1                         
                 WEL =           0.0000                   WEL =           0.0000     SSM_WEL2                         

           TOTAL OUT =           0.1380             TOTAL OUT =       5.0001E-04

            IN - OUT =      -1.1941E-06              IN - OUT =      -1.2317E-08

 PERCENT DISCREPANCY =          -0.00     PERCENT DISCREPANCY =          -0.00




         TIME SUMMARY AT END OF TIME STEP   38 IN STRESS PERIOD    2
                    SECONDS     MINUTES      HOURS       DAYS        YEARS
                    -----------------------------------------------------------
   TIME STEP LENGTH 1.72800E+05  2880.0      48.000      2.0000     5.47570E-03
 STRESS PERIOD TIME 6.56640E+06 1.09440E+05  1824.0      76.000     0.20808    
         TOTAL TIME 2.38464E+07 3.97440E+05  6624.0      276.00     0.75565    


end timestep


start timestep kper="2" kstp="39" mode="normal"

 UBDSV1 SAVING     FLOW-JA-FACE ON UNIT   1030 AT TIME STEP     39, STRESS PERIOD      2
 UBDSV1 SAVING  STORAGE-AQUEOUS ON UNIT   1030 AT TIME STEP     39, STRESS PERIOD      2
 UBDSV06 SAVING  SOURCE-SINK MIX IN MODEL SVA_TM_T         PACKAGE SVA_TM_T        CONNECTED TO MODEL SVA_TM_T         PACKAGE SSM              ON UNIT   1030 AT TIME STEP     39, STRESS PERIOD      2

 CONCENTRATION WILL BE SAVED ON UNIT 1031 AT END OF TIME STEP   39, STRESS PERIOD    2


  MASS BUDGET FOR ENTIRE MODEL AT END OF TIME STEP   39, STRESS PERIOD   2
  ---------------------------------------------------------------------------------------------------

     CUMULATIVE MASS      M       RATES FOR THIS TIME STEP      M/T          PACKAGE NAME    
     ------------------                 ------------------------                     ----------------

           IN:                                      IN:
           ---                                      ---
     STORAGE-AQUEOUS =       2.6021E-05       STORAGE-AQUEOUS =       1.2120E-12     MST                              
                 WEL =           0.0000                   WEL =           0.0000     SSM_WEL1                         
                 WEL =           0.1390                   WEL =       5.0000E-04     SSM_WEL2                         

            TOTAL IN =           0.1390              TOTAL IN =       5.0000E-04

          OUT:                                     OUT:
          ----                                     ----
     STORAGE-AQUEOUS =       7.2605E-02       STORAGE-AQUEOUS =       2.0400E-04     MST                              
                 WEL =       6.6422E-02                   WEL =       2.9601E-04     SSM_WEL1                         
                 WEL =           0.0000                   WEL =           0.0000     SSM_WEL2                         

           TOTAL OUT =           0.1390             TOTAL OUT =       5.0001E-04

            IN - OUT =      -1.2184E-06              IN - OUT =      -1.2136E-08

 PERCENT DISCREPANCY =          -0.00     PERCENT DISCREPANCY =          -0.00




         TIME SUMMARY AT END OF TIME STEP   39 IN STRESS PERIOD    2
                    SECONDS     MINUTES      HOURS       DAYS        YEARS
                    -----------------------------------------------------------
   TIME STEP LENGTH 1.72800E+05  2880.0      48.000      2.0000     5.47570E-03
 STRESS PERIOD TIME 6.73920E+06 1.12320E+05  1872.0      78.000     0.21355    
         TOTAL TIME 2.40192E+07 4.00320E+05  6672.0      278.00     0.76112    


end timestep


start timestep kper="2" kstp="40" mode="normal"

 UBDSV1 SAVING     FLOW-JA-FACE ON UNIT   1030 AT TIME STEP     40, STRESS PERIOD      2
 UBDSV1 SAVING  STORAGE-AQUEOUS ON UNIT   1030 AT TIME STEP     40, STRESS PERIOD      2
 UBDSV06 SAVING  SOURCE-SINK MIX IN MODEL SVA_TM_T         PACKAGE SVA_TM_T        CONNECTED TO MODEL SVA_TM_T         PACKAGE SSM              ON UNIT   1030 AT TIME STEP     40, STRESS PERIOD      2

 CONCENTRATION WILL BE SAVED ON UNIT 1031 AT END OF TIME STEP   40, STRESS PERIOD    2


  MASS BUDGET FOR ENTIRE MODEL AT END OF TIME STEP   40, STRESS PERIOD   2
  ---------------------------------------------------------------------------------------------------

     CUMULATIVE MASS      M       RATES FOR THIS TIME STEP      M/T          PACKAGE NAME    
     ------------------                 ------------------------                     ----------------

           IN:                                      IN:
           ---                                      ---
     STORAGE-AQUEOUS =       2.6021E-05       STORAGE-AQUEOUS =       1.1170E-12     MST                              
                 WEL =           0.0000                   WEL =           0.0000     SSM_WEL1                         
                 WEL =           0.1400                   WEL =       5.0000E-04     SSM_WEL2                         

            TOTAL IN =           0.1400              TOTAL IN =       5.0000E-04

          OUT:                                     OUT:
          ----                                     ----
     STORAGE-AQUEOUS =       7.3012E-02       STORAGE-AQUEOUS =       2.0351E-04     MST                              
                 WEL =       6.7015E-02                   WEL =       2.9650E-04     SSM_WEL1                         
                 WEL =           0.0000                   WEL =           0.0000     SSM_WEL2                         

           TOTAL OUT =           0.1400             TOTAL OUT =       5.0001E-04

            IN - OUT =      -1.2422E-06              IN - OUT =      -1.1911E-08

 PERCENT DISCREPANCY =          -0.00     PERCENT DISCREPANCY =          -0.00




         TIME SUMMARY AT END OF TIME STEP   40 IN STRESS PERIOD    2
                    SECONDS     MINUTES      HOURS       DAYS        YEARS
                    -----------------------------------------------------------
   TIME STEP LENGTH 1.72800E+05  2880.0      48.000      2.0000     5.47570E-03
 STRESS PERIOD TIME 6.91200E+06 1.15200E+05  1920.0      80.000     0.21903    
         TOTAL TIME 2.41920E+07 4.03200E+05  6720.0      280.00     0.76660    


end timestep


start timestep kper="2" kstp="41" mode="normal"

 UBDSV1 SAVING     FLOW-JA-FACE ON UNIT   1030 AT TIME STEP     41, STRESS PERIOD      2
 UBDSV1 SAVING  STORAGE-AQUEOUS ON UNIT   1030 AT TIME STEP     41, STRESS PERIOD      2
 UBDSV06 SAVING  SOURCE-SINK MIX IN MODEL SVA_TM_T         PACKAGE SVA_TM_T        CONNECTED TO MODEL SVA_TM_T         PACKAGE SSM              ON UNIT   1030 AT TIME STEP     41, STRESS PERIOD      2

 CONCENTRATION WILL BE SAVED ON UNIT 1031 AT END OF TIME STEP   41, STRESS PERIOD    2


  MASS BUDGET FOR ENTIRE MODEL AT END OF TIME STEP   41, STRESS PERIOD   2
  ---------------------------------------------------------------------------------------------------

     CUMULATIVE MASS      M       RATES FOR THIS TIME STEP      M/T          PACKAGE NAME    
     ------------------                 ------------------------                     ----------------

           IN:                                      IN:
           ---                                      ---
     STORAGE-AQUEOUS =       2.6021E-05       STORAGE-AQUEOUS =       1.0282E-12     MST                              
                 WEL =           0.0000                   WEL =           0.0000     SSM_WEL1                         
                 WEL =           0.1410                   WEL =       5.0000E-04     SSM_WEL2                         

            TOTAL IN =           0.1410              TOTAL IN =       5.0000E-04

          OUT:                                     OUT:
          ----                                     ----
     STORAGE-AQUEOUS =       7.3418E-02       STORAGE-AQUEOUS =       2.0303E-04     MST                              
                 WEL =       6.7609E-02                   WEL =       2.9698E-04     SSM_WEL1                         
                 WEL =           0.0000                   WEL =           0.0000     SSM_WEL2                         

           TOTAL OUT =           0.1410             TOTAL OUT =       5.0001E-04

            IN - OUT =      -1.2659E-06              IN - OUT =      -1.1821E-08

 PERCENT DISCREPANCY =          -0.00     PERCENT DISCREPANCY =          -0.00




         TIME SUMMARY AT END OF TIME STEP   41 IN STRESS PERIOD    2
                    SECONDS     MINUTES      HOURS       DAYS        YEARS
                    -----------------------------------------------------------
   TIME STEP LENGTH 1.72800E+05  2880.0      48.000      2.0000     5.47570E-03
 STRESS PERIOD TIME 7.08480E+06 1.18080E+05  1968.0      82.000     0.22450    
         TOTAL TIME 2.43648E+07 4.06080E+05  6768.0      282.00     0.77207    


end timestep


start timestep kper="2" kstp="42" mode="normal"

 UBDSV1 SAVING     FLOW-JA-FACE ON UNIT   1030 AT TIME STEP     42, STRESS PERIOD      2
 UBDSV1 SAVING  STORAGE-AQUEOUS ON UNIT   1030 AT TIME STEP     42, STRESS PERIOD      2
 UBDSV06 SAVING  SOURCE-SINK MIX IN MODEL SVA_TM_T         PACKAGE SVA_TM_T        CONNECTED TO MODEL SVA_TM_T         PACKAGE SSM              ON UNIT   1030 AT TIME STEP     42, STRESS PERIOD      2

 CONCENTRATION WILL BE SAVED ON UNIT 1031 AT END OF TIME STEP   42, STRESS PERIOD    2


  MASS BUDGET FOR ENTIRE MODEL AT END OF TIME STEP   42, STRESS PERIOD   2
  ---------------------------------------------------------------------------------------------------

     CUMULATIVE MASS      M       RATES FOR THIS TIME STEP      M/T          PACKAGE NAME    
     ------------------                 ------------------------                     ----------------

           IN:                                      IN:
           ---                                      ---
     STORAGE-AQUEOUS =       2.6021E-05       STORAGE-AQUEOUS =       9.4576E-13     MST                              
                 WEL =           0.0000                   WEL =           0.0000     SSM_WEL1                         
                 WEL =           0.1420                   WEL =       5.0000E-04     SSM_WEL2                         

            TOTAL IN =           0.1420              TOTAL IN =       5.0000E-04

          OUT:                                     OUT:
          ----                                     ----
     STORAGE-AQUEOUS =       7.3823E-02       STORAGE-AQUEOUS =       2.0256E-04     MST                              
                 WEL =       6.8204E-02                   WEL =       2.9745E-04     SSM_WEL1                         
                 WEL =           0.0000                   WEL =           0.0000     SSM_WEL2                         

           TOTAL OUT =           0.1420             TOTAL OUT =       5.0001E-04

            IN - OUT =      -1.2889E-06              IN - OUT =      -1.1519E-08

 PERCENT DISCREPANCY =          -0.00     PERCENT DISCREPANCY =          -0.00




         TIME SUMMARY AT END OF TIME STEP   42 IN STRESS PERIOD    2
                    SECONDS     MINUTES      HOURS       DAYS        YEARS
                    -----------------------------------------------------------
   TIME STEP LENGTH 1.72800E+05  2880.0      48.000      2.0000     5.47570E-03
 STRESS PERIOD TIME 7.25760E+06 1.20960E+05  2016.0      84.000     0.22998    
         TOTAL TIME 2.45376E+07 4.08960E+05  6816.0      284.00     0.77755    


end timestep


start timestep kper="2" kstp="43" mode="normal"

 UBDSV1 SAVING     FLOW-JA-FACE ON UNIT   1030 AT TIME STEP     43, STRESS PERIOD      2
 UBDSV1 SAVING  STORAGE-AQUEOUS ON UNIT   1030 AT TIME STEP     43, STRESS PERIOD      2
 UBDSV06 SAVING  SOURCE-SINK MIX IN MODEL SVA_TM_T         PACKAGE SVA_TM_T        CONNECTED TO MODEL SVA_TM_T         PACKAGE SSM              ON UNIT   1030 AT TIME STEP     43, STRESS PERIOD      2

 CONCENTRATION WILL BE SAVED ON UNIT 1031 AT END OF TIME STEP   43, STRESS PERIOD    2


  MASS BUDGET FOR ENTIRE MODEL AT END OF TIME STEP   43, STRESS PERIOD   2
  ---------------------------------------------------------------------------------------------------

     CUMULATIVE MASS      M       RATES FOR THIS TIME STEP      M/T          PACKAGE NAME    
     ------------------                 ------------------------                     ----------------

           IN:                                      IN:
           ---                                      ---
     STORAGE-AQUEOUS =       2.6021E-05       STORAGE-AQUEOUS =       8.6944E-13     MST                              
                 WEL =           0.0000                   WEL =           0.0000     SSM_WEL1                         
                 WEL =           0.1430                   WEL =       5.0000E-04     SSM_WEL2                         

            TOTAL IN =           0.1430              TOTAL IN =       5.0000E-04

          OUT:                                     OUT:
          ----                                     ----
     STORAGE-AQUEOUS =       7.4227E-02       STORAGE-AQUEOUS =       2.0209E-04     MST                              
                 WEL =       6.8800E-02                   WEL =       2.9792E-04     SSM_WEL1                         
                 WEL =           0.0000                   WEL =           0.0000     SSM_WEL2                         

           TOTAL OUT =           0.1430             TOTAL OUT =       5.0001E-04

            IN - OUT =      -1.3117E-06              IN - OUT =      -1.1395E-08

 PERCENT DISCREPANCY =          -0.00     PERCENT DISCREPANCY =          -0.00




         TIME SUMMARY AT END OF TIME STEP   43 IN STRESS PERIOD    2
                    SECONDS     MINUTES      HOURS       DAYS        YEARS
                    -----------------------------------------------------------
   TIME STEP LENGTH 1.72800E+05  2880.0      48.000      2.0000     5.47570E-03
 STRESS PERIOD TIME 7.43040E+06 1.23840E+05  2064.0      86.000     0.23546    
         TOTAL TIME 2.47104E+07 4.11840E+05  6864.0      286.00     0.78303    


end timestep


start timestep kper="2" kstp="44" mode="normal"

 UBDSV1 SAVING     FLOW-JA-FACE ON UNIT   1030 AT TIME STEP     44, STRESS PERIOD      2
 UBDSV1 SAVING  STORAGE-AQUEOUS ON UNIT   1030 AT TIME STEP     44, STRESS PERIOD      2
 UBDSV06 SAVING  SOURCE-SINK MIX IN MODEL SVA_TM_T         PACKAGE SVA_TM_T        CONNECTED TO MODEL SVA_TM_T         PACKAGE SSM              ON UNIT   1030 AT TIME STEP     44, STRESS PERIOD      2

 CONCENTRATION WILL BE SAVED ON UNIT 1031 AT END OF TIME STEP   44, STRESS PERIOD    2


  MASS BUDGET FOR ENTIRE MODEL AT END OF TIME STEP   44, STRESS PERIOD   2
  ---------------------------------------------------------------------------------------------------

     CUMULATIVE MASS      M       RATES FOR THIS TIME STEP      M/T          PACKAGE NAME    
     ------------------                 ------------------------                     ----------------

           IN:                                      IN:
           ---                                      ---
     STORAGE-AQUEOUS =       2.6021E-05       STORAGE-AQUEOUS =       7.9817E-13     MST                              
                 WEL =           0.0000                   WEL =           0.0000     SSM_WEL1                         
                 WEL =           0.1440                   WEL =       5.0000E-04     SSM_WEL2                         

            TOTAL IN =           0.1440              TOTAL IN =       5.0000E-04

          OUT:                                     OUT:
          ----                                     ----
     STORAGE-AQUEOUS =       7.4630E-02       STORAGE-AQUEOUS =       2.0162E-04     MST                              
                 WEL =       6.9397E-02                   WEL =       2.9839E-04     SSM_WEL1                         
                 WEL =           0.0000                   WEL =           0.0000     SSM_WEL2                         

           TOTAL OUT =           0.1440             TOTAL OUT =       5.0000E-04

            IN - OUT =      -1.3202E-06              IN - OUT =      -4.2698E-09

 PERCENT DISCREPANCY =          -0.00     PERCENT DISCREPANCY =          -0.00




         TIME SUMMARY AT END OF TIME STEP   44 IN STRESS PERIOD    2
                    SECONDS     MINUTES      HOURS       DAYS        YEARS
                    -----------------------------------------------------------
   TIME STEP LENGTH 1.72800E+05  2880.0      48.000      2.0000     5.47570E-03
 STRESS PERIOD TIME 7.60320E+06 1.26720E+05  2112.0      88.000     0.24093    
         TOTAL TIME 2.48832E+07 4.14720E+05  6912.0      288.00     0.78850    


end timestep


start timestep kper="2" kstp="45" mode="normal"

 UBDSV1 SAVING     FLOW-JA-FACE ON UNIT   1030 AT TIME STEP     45, STRESS PERIOD      2
 UBDSV1 SAVING  STORAGE-AQUEOUS ON UNIT   1030 AT TIME STEP     45, STRESS PERIOD      2
 UBDSV06 SAVING  SOURCE-SINK MIX IN MODEL SVA_TM_T         PACKAGE SVA_TM_T        CONNECTED TO MODEL SVA_TM_T         PACKAGE SSM              ON UNIT   1030 AT TIME STEP     45, STRESS PERIOD      2

 CONCENTRATION WILL BE SAVED ON UNIT 1031 AT END OF TIME STEP   45, STRESS PERIOD    2


  MASS BUDGET FOR ENTIRE MODEL AT END OF TIME STEP   45, STRESS PERIOD   2
  ---------------------------------------------------------------------------------------------------

     CUMULATIVE MASS      M       RATES FOR THIS TIME STEP      M/T          PACKAGE NAME    
     ------------------                 ------------------------                     ----------------

           IN:                                      IN:
           ---                                      ---
     STORAGE-AQUEOUS =       2.6021E-05       STORAGE-AQUEOUS =       8.4839E-13     MST                              
                 WEL =           0.0000                   WEL =           0.0000     SSM_WEL1                         
                 WEL =           0.1450                   WEL =       5.0000E-04     SSM_WEL2                         

            TOTAL IN =           0.1450              TOTAL IN =       5.0000E-04

          OUT:                                     OUT:
          ----                                     ----
     STORAGE-AQUEOUS =       7.5033E-02       STORAGE-AQUEOUS =       2.0115E-04     MST                              
                 WEL =       6.9995E-02                   WEL =       2.9885E-04     SSM_WEL1                         
                 WEL =           0.0000                   WEL =           0.0000     SSM_WEL2                         

           TOTAL OUT =           0.1450             TOTAL OUT =       5.0000E-04

            IN - OUT =      -1.3269E-06              IN - OUT =      -3.3346E-09

 PERCENT DISCREPANCY =          -0.00     PERCENT DISCREPANCY =          -0.00




         TIME SUMMARY AT END OF TIME STEP   45 IN STRESS PERIOD    2
                    SECONDS     MINUTES      HOURS       DAYS        YEARS
                    -----------------------------------------------------------
   TIME STEP LENGTH 1.72800E+05  2880.0      48.000      2.0000     5.47570E-03
 STRESS PERIOD TIME 7.77600E+06 1.29600E+05  2160.0      90.000     0.24641    
         TOTAL TIME 2.50560E+07 4.17600E+05  6960.0      290.00     0.79398    


end timestep


start timestep kper="2" kstp="46" mode="normal"

 UBDSV1 SAVING     FLOW-JA-FACE ON UNIT   1030 AT TIME STEP     46, STRESS PERIOD      2
 UBDSV1 SAVING  STORAGE-AQUEOUS ON UNIT   1030 AT TIME STEP     46, STRESS PERIOD      2
 UBDSV06 SAVING  SOURCE-SINK MIX IN MODEL SVA_TM_T         PACKAGE SVA_TM_T        CONNECTED TO MODEL SVA_TM_T         PACKAGE SSM              ON UNIT   1030 AT TIME STEP     46, STRESS PERIOD      2

 CONCENTRATION WILL BE SAVED ON UNIT 1031 AT END OF TIME STEP   46, STRESS PERIOD    2


  MASS BUDGET FOR ENTIRE MODEL AT END OF TIME STEP   46, STRESS PERIOD   2
  ---------------------------------------------------------------------------------------------------

     CUMULATIVE MASS      M       RATES FOR THIS TIME STEP      M/T          PACKAGE NAME    
     ------------------                 ------------------------                     ----------------

           IN:                                      IN:
           ---                                      ---
     STORAGE-AQUEOUS =       2.6021E-05       STORAGE-AQUEOUS =       8.8932E-13     MST                              
                 WEL =           0.0000                   WEL =           0.0000     SSM_WEL1                         
                 WEL =           0.1460                   WEL =       5.0000E-04     SSM_WEL2                         

            TOTAL IN =           0.1460              TOTAL IN =       5.0000E-04

          OUT:                                     OUT:
          ----                                     ----
     STORAGE-AQUEOUS =       7.5434E-02       STORAGE-AQUEOUS =       2.0070E-04     MST                              
                 WEL =       7.0593E-02                   WEL =       2.9931E-04     SSM_WEL1                         
                 WEL =           0.0000                   WEL =           0.0000     SSM_WEL2                         

           TOTAL OUT =           0.1460             TOTAL OUT =       5.0000E-04

            IN - OUT =      -1.3304E-06              IN - OUT =      -1.7428E-09

 PERCENT DISCREPANCY =          -0.00     PERCENT DISCREPANCY =          -0.00




         TIME SUMMARY AT END OF TIME STEP   46 IN STRESS PERIOD    2
                    SECONDS     MINUTES      HOURS       DAYS        YEARS
                    -----------------------------------------------------------
   TIME STEP LENGTH 1.72800E+05  2880.0      48.000      2.0000     5.47570E-03
 STRESS PERIOD TIME 7.94880E+06 1.32480E+05  2208.0      92.000     0.25188    
         TOTAL TIME 2.52288E+07 4.20480E+05  7008.0      292.00     0.79945    


end timestep


start timestep kper="2" kstp="47" mode="normal"

 UBDSV1 SAVING     FLOW-JA-FACE ON UNIT   1030 AT TIME STEP     47, STRESS PERIOD      2
 UBDSV1 SAVING  STORAGE-AQUEOUS ON UNIT   1030 AT TIME STEP     47, STRESS PERIOD      2
 UBDSV06 SAVING  SOURCE-SINK MIX IN MODEL SVA_TM_T         PACKAGE SVA_TM_T        CONNECTED TO MODEL SVA_TM_T         PACKAGE SSM              ON UNIT   1030 AT TIME STEP     47, STRESS PERIOD      2

 CONCENTRATION WILL BE SAVED ON UNIT 1031 AT END OF TIME STEP   47, STRESS PERIOD    2


  MASS BUDGET FOR ENTIRE MODEL AT END OF TIME STEP   47, STRESS PERIOD   2
  ---------------------------------------------------------------------------------------------------

     CUMULATIVE MASS      M       RATES FOR THIS TIME STEP      M/T          PACKAGE NAME    
     ------------------                 ------------------------                     ----------------

           IN:                                      IN:
           ---                                      ---
     STORAGE-AQUEOUS =       2.6021E-05       STORAGE-AQUEOUS =       8.7940E-13     MST                              
                 WEL =           0.0000                   WEL =           0.0000     SSM_WEL1                         
                 WEL =           0.1470                   WEL =       5.0000E-04     SSM_WEL2                         

            TOTAL IN =           0.1470              TOTAL IN =       5.0000E-04

          OUT:                                     OUT:
          ----                                     ----
     STORAGE-AQUEOUS =       7.5835E-02       STORAGE-AQUEOUS =       2.0024E-04     MST                              
                 WEL =       7.1193E-02                   WEL =       2.9976E-04     SSM_WEL1                         
                 WEL =           0.0000                   WEL =           0.0000     SSM_WEL2                         

           TOTAL OUT =           0.1470             TOTAL OUT =       5.0000E-04

            IN - OUT =      -1.3326E-06              IN - OUT =      -1.0876E-09

 PERCENT DISCREPANCY =          -0.00     PERCENT DISCREPANCY =          -0.00




         TIME SUMMARY AT END OF TIME STEP   47 IN STRESS PERIOD    2
                    SECONDS     MINUTES      HOURS       DAYS        YEARS
                    -----------------------------------------------------------
   TIME STEP LENGTH 1.72800E+05  2880.0      48.000      2.0000     5.47570E-03
 STRESS PERIOD TIME 8.12160E+06 1.35360E+05  2256.0      94.000     0.25736    
         TOTAL TIME 2.54016E+07 4.23360E+05  7056.0      294.00     0.80493    


end timestep


start timestep kper="2" kstp="48" mode="normal"

 UBDSV1 SAVING     FLOW-JA-FACE ON UNIT   1030 AT TIME STEP     48, STRESS PERIOD      2
 UBDSV1 SAVING  STORAGE-AQUEOUS ON UNIT   1030 AT TIME STEP     48, STRESS PERIOD      2
 UBDSV06 SAVING  SOURCE-SINK MIX IN MODEL SVA_TM_T         PACKAGE SVA_TM_T        CONNECTED TO MODEL SVA_TM_T         PACKAGE SSM              ON UNIT   1030 AT TIME STEP     48, STRESS PERIOD      2

 CONCENTRATION WILL BE SAVED ON UNIT 1031 AT END OF TIME STEP   48, STRESS PERIOD    2


  MASS BUDGET FOR ENTIRE MODEL AT END OF TIME STEP   48, STRESS PERIOD   2
  ---------------------------------------------------------------------------------------------------

     CUMULATIVE MASS      M       RATES FOR THIS TIME STEP      M/T          PACKAGE NAME    
     ------------------                 ------------------------                     ----------------

           IN:                                      IN:
           ---                                      ---
     STORAGE-AQUEOUS =       2.6021E-05       STORAGE-AQUEOUS =       8.3372E-13     MST                              
                 WEL =           0.0000                   WEL =           0.0000     SSM_WEL1                         
                 WEL =           0.1480                   WEL =       5.0000E-04     SSM_WEL2                         

            TOTAL IN =           0.1480              TOTAL IN =       5.0000E-04

          OUT:                                     OUT:
          ----                                     ----
     STORAGE-AQUEOUS =       7.6234E-02       STORAGE-AQUEOUS =       1.9978E-04     MST                              
                 WEL =       7.1793E-02                   WEL =       3.0022E-04     SSM_WEL1                         
                 WEL =           0.0000                   WEL =           0.0000     SSM_WEL2                         

           TOTAL OUT =           0.1480             TOTAL OUT =       5.0000E-04

            IN - OUT =      -1.3420E-06              IN - OUT =      -4.7294E-09

 PERCENT DISCREPANCY =          -0.00     PERCENT DISCREPANCY =          -0.00




         TIME SUMMARY AT END OF TIME STEP   48 IN STRESS PERIOD    2
                    SECONDS     MINUTES      HOURS       DAYS        YEARS
                    -----------------------------------------------------------
   TIME STEP LENGTH 1.72800E+05  2880.0      48.000      2.0000     5.47570E-03
 STRESS PERIOD TIME 8.29440E+06 1.38240E+05  2304.0      96.000     0.26283    
         TOTAL TIME 2.55744E+07 4.26240E+05  7104.0      296.00     0.81040    


end timestep


start timestep kper="2" kstp="49" mode="normal"

 UBDSV1 SAVING     FLOW-JA-FACE ON UNIT   1030 AT TIME STEP     49, STRESS PERIOD      2
 UBDSV1 SAVING  STORAGE-AQUEOUS ON UNIT   1030 AT TIME STEP     49, STRESS PERIOD      2
 UBDSV06 SAVING  SOURCE-SINK MIX IN MODEL SVA_TM_T         PACKAGE SVA_TM_T        CONNECTED TO MODEL SVA_TM_T         PACKAGE SSM              ON UNIT   1030 AT TIME STEP     49, STRESS PERIOD      2

 CONCENTRATION WILL BE SAVED ON UNIT 1031 AT END OF TIME STEP   49, STRESS PERIOD    2


  MASS BUDGET FOR ENTIRE MODEL AT END OF TIME STEP   49, STRESS PERIOD   2
  ---------------------------------------------------------------------------------------------------

     CUMULATIVE MASS      M       RATES FOR THIS TIME STEP      M/T          PACKAGE NAME    
     ------------------                 ------------------------                     ----------------

           IN:                                      IN:
           ---                                      ---
     STORAGE-AQUEOUS =       2.6021E-05       STORAGE-AQUEOUS =       7.6774E-13     MST                              
                 WEL =           0.0000                   WEL =           0.0000     SSM_WEL1                         
                 WEL =           0.1490                   WEL =       5.0000E-04     SSM_WEL2                         

            TOTAL IN =           0.1490              TOTAL IN =       5.0000E-04

          OUT:                                     OUT:
          ----                                     ----
     STORAGE-AQUEOUS =       7.6633E-02       STORAGE-AQUEOUS =       1.9931E-04     MST                              
                 WEL =       7.2395E-02                   WEL =       3.0070E-04     SSM_WEL1                         
                 WEL =           0.0000                   WEL =           0.0000     SSM_WEL2                         

           TOTAL OUT =           0.1490             TOTAL OUT =       5.0001E-04

            IN - OUT =      -1.3545E-06              IN - OUT =      -6.2496E-09

 PERCENT DISCREPANCY =          -0.00     PERCENT DISCREPANCY =          -0.00




         TIME SUMMARY AT END OF TIME STEP   49 IN STRESS PERIOD    2
                    SECONDS     MINUTES      HOURS       DAYS        YEARS
                    -----------------------------------------------------------
   TIME STEP LENGTH 1.72800E+05  2880.0      48.000      2.0000     5.47570E-03
 STRESS PERIOD TIME 8.46720E+06 1.41120E+05  2352.0      98.000     0.26831    
         TOTAL TIME 2.57472E+07 4.29120E+05  7152.0      298.00     0.81588    


end timestep


start timestep kper="2" kstp="50" mode="normal"

 UBDSV1 SAVING     FLOW-JA-FACE ON UNIT   1030 AT TIME STEP     50, STRESS PERIOD      2
 UBDSV1 SAVING  STORAGE-AQUEOUS ON UNIT   1030 AT TIME STEP     50, STRESS PERIOD      2
 UBDSV06 SAVING  SOURCE-SINK MIX IN MODEL SVA_TM_T         PACKAGE SVA_TM_T        CONNECTED TO MODEL SVA_TM_T         PACKAGE SSM              ON UNIT   1030 AT TIME STEP     50, STRESS PERIOD      2

 CONCENTRATION WILL BE SAVED ON UNIT 1031 AT END OF TIME STEP   50, STRESS PERIOD    2


  MASS BUDGET FOR ENTIRE MODEL AT END OF TIME STEP   50, STRESS PERIOD   2
  ---------------------------------------------------------------------------------------------------

     CUMULATIVE MASS      M       RATES FOR THIS TIME STEP      M/T          PACKAGE NAME    
     ------------------                 ------------------------                     ----------------

           IN:                                      IN:
           ---                                      ---
     STORAGE-AQUEOUS =       2.6021E-05       STORAGE-AQUEOUS =       6.9493E-13     MST                              
                 WEL =           0.0000                   WEL =           0.0000     SSM_WEL1                         
                 WEL =           0.1500                   WEL =       5.0000E-04     SSM_WEL2                         

            TOTAL IN =           0.1500              TOTAL IN =       5.0000E-04

          OUT:                                     OUT:
          ----                                     ----
     STORAGE-AQUEOUS =       7.7031E-02       STORAGE-AQUEOUS =       1.9883E-04     MST                              
                 WEL =       7.2997E-02                   WEL =       3.0118E-04     SSM_WEL1                         
                 WEL =           0.0000                   WEL =           0.0000     SSM_WEL2                         

           TOTAL OUT =           0.1500             TOTAL OUT =       5.0001E-04

            IN - OUT =      -1.3675E-06              IN - OUT =      -6.5021E-09

 PERCENT DISCREPANCY =          -0.00     PERCENT DISCREPANCY =          -0.00




         TIME SUMMARY AT END OF TIME STEP   50 IN STRESS PERIOD    2
                    SECONDS     MINUTES      HOURS       DAYS        YEARS
                    -----------------------------------------------------------
   TIME STEP LENGTH 1.72800E+05  2880.0      48.000      2.0000     5.47570E-03
 STRESS PERIOD TIME 8.64000E+06 1.44000E+05  2400.0      100.00     0.27379    
         TOTAL TIME 2.59200E+07 4.32000E+05  7200.0      300.00     0.82136    


end timestep


start timestep kper="2" kstp="51" mode="normal"

 UBDSV1 SAVING     FLOW-JA-FACE ON UNIT   1030 AT TIME STEP     51, STRESS PERIOD      2
 UBDSV1 SAVING  STORAGE-AQUEOUS ON UNIT   1030 AT TIME STEP     51, STRESS PERIOD      2
 UBDSV06 SAVING  SOURCE-SINK MIX IN MODEL SVA_TM_T         PACKAGE SVA_TM_T        CONNECTED TO MODEL SVA_TM_T         PACKAGE SSM              ON UNIT   1030 AT TIME STEP     51, STRESS PERIOD      2

 CONCENTRATION WILL BE SAVED ON UNIT 1031 AT END OF TIME STEP   51, STRESS PERIOD    2


  MASS BUDGET FOR ENTIRE MODEL AT END OF TIME STEP   51, STRESS PERIOD   2
  ---------------------------------------------------------------------------------------------------

     CUMULATIVE MASS      M       RATES FOR THIS TIME STEP      M/T          PACKAGE NAME    
     ------------------                 ------------------------                     ----------------

           IN:                                      IN:
           ---                                      ---
     STORAGE-AQUEOUS =       2.6021E-05       STORAGE-AQUEOUS =       6.2098E-13     MST                              
                 WEL =           0.0000                   WEL =           0.0000     SSM_WEL1                         
                 WEL =           0.1510                   WEL =       5.0000E-04     SSM_WEL2                         

            TOTAL IN =           0.1510              TOTAL IN =       5.0000E-04

          OUT:                                     OUT:
          ----                                     ----
     STORAGE-AQUEOUS =       7.7427E-02       STORAGE-AQUEOUS =       1.9835E-04     MST                              
                 WEL =       7.3600E-02                   WEL =       3.0167E-04     SSM_WEL1                         
                 WEL =           0.0000                   WEL =           0.0000     SSM_WEL2                         

           TOTAL OUT =           0.1510             TOTAL OUT =       5.0001E-04

            IN - OUT =      -1.3884E-06              IN - OUT =      -1.0428E-08

 PERCENT DISCREPANCY =          -0.00     PERCENT DISCREPANCY =          -0.00




         TIME SUMMARY AT END OF TIME STEP   51 IN STRESS PERIOD    2
                    SECONDS     MINUTES      HOURS       DAYS        YEARS
                    -----------------------------------------------------------
   TIME STEP LENGTH 1.72800E+05  2880.0      48.000      2.0000     5.47570E-03
 STRESS PERIOD TIME 8.81280E+06 1.46880E+05  2448.0      102.00     0.27926    
         TOTAL TIME 2.60928E+07 4.34880E+05  7248.0      302.00     0.82683    


end timestep


start timestep kper="2" kstp="52" mode="normal"

 UBDSV1 SAVING     FLOW-JA-FACE ON UNIT   1030 AT TIME STEP     52, STRESS PERIOD      2
 UBDSV1 SAVING  STORAGE-AQUEOUS ON UNIT   1030 AT TIME STEP     52, STRESS PERIOD      2
 UBDSV06 SAVING  SOURCE-SINK MIX IN MODEL SVA_TM_T         PACKAGE SVA_TM_T        CONNECTED TO MODEL SVA_TM_T         PACKAGE SSM              ON UNIT   1030 AT TIME STEP     52, STRESS PERIOD      2

 CONCENTRATION WILL BE SAVED ON UNIT 1031 AT END OF TIME STEP   52, STRESS PERIOD    2


  MASS BUDGET FOR ENTIRE MODEL AT END OF TIME STEP   52, STRESS PERIOD   2
  ---------------------------------------------------------------------------------------------------

     CUMULATIVE MASS      M       RATES FOR THIS TIME STEP      M/T          PACKAGE NAME    
     ------------------                 ------------------------                     ----------------

           IN:                                      IN:
           ---                                      ---
     STORAGE-AQUEOUS =       2.6021E-05       STORAGE-AQUEOUS =       6.2778E-13     MST                              
                 WEL =           0.0000                   WEL =           0.0000     SSM_WEL1                         
                 WEL =           0.1520                   WEL =       5.0000E-04     SSM_WEL2                         

            TOTAL IN =           0.1520              TOTAL IN =       5.0000E-04

          OUT:                                     OUT:
          ----                                     ----
     STORAGE-AQUEOUS =       7.7823E-02       STORAGE-AQUEOUS =       1.9785E-04     MST                              
                 WEL =       7.4205E-02                   WEL =       3.0216E-04     SSM_WEL1                         
                 WEL =           0.0000                   WEL =           0.0000     SSM_WEL2                         

           TOTAL OUT =           0.1520             TOTAL OUT =       5.0001E-04

            IN - OUT =      -1.4089E-06              IN - OUT =      -1.0274E-08

 PERCENT DISCREPANCY =          -0.00     PERCENT DISCREPANCY =          -0.00




         TIME SUMMARY AT END OF TIME STEP   52 IN STRESS PERIOD    2
                    SECONDS     MINUTES      HOURS       DAYS        YEARS
                    -----------------------------------------------------------
   TIME STEP LENGTH 1.72800E+05  2880.0      48.000      2.0000     5.47570E-03
 STRESS PERIOD TIME 8.98560E+06 1.49760E+05  2496.0      104.00     0.28474    
         TOTAL TIME 2.62656E+07 4.37760E+05  7296.0      304.00     0.83231    


end timestep


start timestep kper="2" kstp="53" mode="normal"

 UBDSV1 SAVING     FLOW-JA-FACE ON UNIT   1030 AT TIME STEP     53, STRESS PERIOD      2
 UBDSV1 SAVING  STORAGE-AQUEOUS ON UNIT   1030 AT TIME STEP     53, STRESS PERIOD      2
 UBDSV06 SAVING  SOURCE-SINK MIX IN MODEL SVA_TM_T         PACKAGE SVA_TM_T        CONNECTED TO MODEL SVA_TM_T         PACKAGE SSM              ON UNIT   1030 AT TIME STEP     53, STRESS PERIOD      2

 CONCENTRATION WILL BE SAVED ON UNIT 1031 AT END OF TIME STEP   53, STRESS PERIOD    2


  MASS BUDGET FOR ENTIRE MODEL AT END OF TIME STEP   53, STRESS PERIOD   2
  ---------------------------------------------------------------------------------------------------

     CUMULATIVE MASS      M       RATES FOR THIS TIME STEP      M/T          PACKAGE NAME    
     ------------------                 ------------------------                     ----------------

           IN:                                      IN:
           ---                                      ---
     STORAGE-AQUEOUS =       2.6021E-05       STORAGE-AQUEOUS =       6.1561E-13     MST                              
                 WEL =           0.0000                   WEL =           0.0000     SSM_WEL1                         
                 WEL =           0.1530                   WEL =       5.0000E-04     SSM_WEL2                         

            TOTAL IN =           0.1530              TOTAL IN =       5.0000E-04

          OUT:                                     OUT:
          ----                                     ----
     STORAGE-AQUEOUS =       7.8218E-02       STORAGE-AQUEOUS =       1.9735E-04     MST                              
                 WEL =       7.4810E-02                   WEL =       3.0266E-04     SSM_WEL1                         
                 WEL =           0.0000                   WEL =           0.0000     SSM_WEL2                         

           TOTAL OUT =           0.1530             TOTAL OUT =       5.0001E-04

            IN - OUT =      -1.4295E-06              IN - OUT =      -1.0300E-08

 PERCENT DISCREPANCY =          -0.00     PERCENT DISCREPANCY =          -0.00




         TIME SUMMARY AT END OF TIME STEP   53 IN STRESS PERIOD    2
                    SECONDS     MINUTES      HOURS       DAYS        YEARS
                    -----------------------------------------------------------
   TIME STEP LENGTH 1.72800E+05  2880.0      48.000      2.0000     5.47570E-03
 STRESS PERIOD TIME 9.15840E+06 1.52640E+05  2544.0      106.00     0.29021    
         TOTAL TIME 2.64384E+07 4.40640E+05  7344.0      306.00     0.83778    


end timestep


start timestep kper="2" kstp="54" mode="normal"

 UBDSV1 SAVING     FLOW-JA-FACE ON UNIT   1030 AT TIME STEP     54, STRESS PERIOD      2
 UBDSV1 SAVING  STORAGE-AQUEOUS ON UNIT   1030 AT TIME STEP     54, STRESS PERIOD      2
 UBDSV06 SAVING  SOURCE-SINK MIX IN MODEL SVA_TM_T         PACKAGE SVA_TM_T        CONNECTED TO MODEL SVA_TM_T         PACKAGE SSM              ON UNIT   1030 AT TIME STEP     54, STRESS PERIOD      2

 CONCENTRATION WILL BE SAVED ON UNIT 1031 AT END OF TIME STEP   54, STRESS PERIOD    2


  MASS BUDGET FOR ENTIRE MODEL AT END OF TIME STEP   54, STRESS PERIOD   2
  ---------------------------------------------------------------------------------------------------

     CUMULATIVE MASS      M       RATES FOR THIS TIME STEP      M/T          PACKAGE NAME    
     ------------------                 ------------------------                     ----------------

           IN:                                      IN:
           ---                                      ---
     STORAGE-AQUEOUS =       2.6021E-05       STORAGE-AQUEOUS =       5.8426E-13     MST                              
                 WEL =           0.0000                   WEL =           0.0000     SSM_WEL1                         
                 WEL =           0.1540                   WEL =       5.0000E-04     SSM_WEL2                         

            TOTAL IN =           0.1540              TOTAL IN =       5.0000E-04

          OUT:                                     OUT:
          ----                                     ----
     STORAGE-AQUEOUS =       7.8611E-02       STORAGE-AQUEOUS =       1.9685E-04     MST                              
                 WEL =       7.5416E-02                   WEL =       3.0316E-04     SSM_WEL1                         
                 WEL =           0.0000                   WEL =           0.0000     SSM_WEL2                         

           TOTAL OUT =           0.1540             TOTAL OUT =       5.0001E-04

            IN - OUT =      -1.4499E-06              IN - OUT =      -1.0177E-08

 PERCENT DISCREPANCY =          -0.00     PERCENT DISCREPANCY =          -0.00




         TIME SUMMARY AT END OF TIME STEP   54 IN STRESS PERIOD    2
                    SECONDS     MINUTES      HOURS       DAYS        YEARS
                    -----------------------------------------------------------
   TIME STEP LENGTH 1.72800E+05  2880.0      48.000      2.0000     5.47570E-03
 STRESS PERIOD TIME 9.33120E+06 1.55520E+05  2592.0      108.00     0.29569    
         TOTAL TIME 2.66112E+07 4.43520E+05  7392.0      308.00     0.84326    


end timestep


start timestep kper="2" kstp="55" mode="normal"

 UBDSV1 SAVING     FLOW-JA-FACE ON UNIT   1030 AT TIME STEP     55, STRESS PERIOD      2
 UBDSV1 SAVING  STORAGE-AQUEOUS ON UNIT   1030 AT TIME STEP     55, STRESS PERIOD      2
 UBDSV06 SAVING  SOURCE-SINK MIX IN MODEL SVA_TM_T         PACKAGE SVA_TM_T        CONNECTED TO MODEL SVA_TM_T         PACKAGE SSM              ON UNIT   1030 AT TIME STEP     55, STRESS PERIOD      2

 CONCENTRATION WILL BE SAVED ON UNIT 1031 AT END OF TIME STEP   55, STRESS PERIOD    2


  MASS BUDGET FOR ENTIRE MODEL AT END OF TIME STEP   55, STRESS PERIOD   2
  ---------------------------------------------------------------------------------------------------

     CUMULATIVE MASS      M       RATES FOR THIS TIME STEP      M/T          PACKAGE NAME    
     ------------------                 ------------------------                     ----------------

           IN:                                      IN:
           ---                                      ---
     STORAGE-AQUEOUS =       2.6021E-05       STORAGE-AQUEOUS =       5.3984E-13     MST                              
                 WEL =           0.0000                   WEL =           0.0000     SSM_WEL1                         
                 WEL =           0.1550                   WEL =       5.0000E-04     SSM_WEL2                         

            TOTAL IN =           0.1550              TOTAL IN =       5.0000E-04

          OUT:                                     OUT:
          ----                                     ----
     STORAGE-AQUEOUS =       7.9004E-02       STORAGE-AQUEOUS =       1.9633E-04     MST                              
                 WEL =       7.6024E-02                   WEL =       3.0368E-04     SSM_WEL1                         
                 WEL =           0.0000                   WEL =           0.0000     SSM_WEL2                         

           TOTAL OUT =           0.1550             TOTAL OUT =       5.0001E-04

            IN - OUT =      -1.4698E-06              IN - OUT =      -9.9676E-09

 PERCENT DISCREPANCY =          -0.00     PERCENT DISCREPANCY =          -0.00




         TIME SUMMARY AT END OF TIME STEP   55 IN STRESS PERIOD    2
                    SECONDS     MINUTES      HOURS       DAYS        YEARS
                    -----------------------------------------------------------
   TIME STEP LENGTH 1.72800E+05  2880.0      48.000      2.0000     5.47570E-03
 STRESS PERIOD TIME 9.50400E+06 1.58400E+05  2640.0      110.00     0.30116    
         TOTAL TIME 2.67840E+07 4.46400E+05  7440.0      310.00     0.84873    


end timestep


start timestep kper="2" kstp="56" mode="normal"

 UBDSV1 SAVING     FLOW-JA-FACE ON UNIT   1030 AT TIME STEP     56, STRESS PERIOD      2
 UBDSV1 SAVING  STORAGE-AQUEOUS ON UNIT   1030 AT TIME STEP     56, STRESS PERIOD      2
 UBDSV06 SAVING  SOURCE-SINK MIX IN MODEL SVA_TM_T         PACKAGE SVA_TM_T        CONNECTED TO MODEL SVA_TM_T         PACKAGE SSM              ON UNIT   1030 AT TIME STEP     56, STRESS PERIOD      2

 CONCENTRATION WILL BE SAVED ON UNIT 1031 AT END OF TIME STEP   56, STRESS PERIOD    2


  MASS BUDGET FOR ENTIRE MODEL AT END OF TIME STEP   56, STRESS PERIOD   2
  ---------------------------------------------------------------------------------------------------

     CUMULATIVE MASS      M       RATES FOR THIS TIME STEP      M/T          PACKAGE NAME    
     ------------------                 ------------------------                     ----------------

           IN:                                      IN:
           ---                                      ---
     STORAGE-AQUEOUS =       2.6021E-05       STORAGE-AQUEOUS =       4.9095E-13     MST                              
                 WEL =           0.0000                   WEL =           0.0000     SSM_WEL1                         
                 WEL =           0.1560                   WEL =       5.0000E-04     SSM_WEL2                         

            TOTAL IN =           0.1560              TOTAL IN =       5.0000E-04

          OUT:                                     OUT:
          ----                                     ----
     STORAGE-AQUEOUS =       7.9396E-02       STORAGE-AQUEOUS =       1.9581E-04     MST                              
                 WEL =       7.6632E-02                   WEL =       3.0420E-04     SSM_WEL1                         
                 WEL =           0.0000                   WEL =           0.0000     SSM_WEL2                         

           TOTAL OUT =           0.1560             TOTAL OUT =       5.0001E-04

            IN - OUT =      -1.4895E-06              IN - OUT =      -9.8173E-09

 PERCENT DISCREPANCY =          -0.00     PERCENT DISCREPANCY =          -0.00




         TIME SUMMARY AT END OF TIME STEP   56 IN STRESS PERIOD    2
                    SECONDS     MINUTES      HOURS       DAYS        YEARS
                    -----------------------------------------------------------
   TIME STEP LENGTH 1.72800E+05  2880.0      48.000      2.0000     5.47570E-03
 STRESS PERIOD TIME 9.67680E+06 1.61280E+05  2688.0      112.00     0.30664    
         TOTAL TIME 2.69568E+07 4.49280E+05  7488.0      312.00     0.85421    


end timestep


start timestep kper="2" kstp="57" mode="normal"

 UBDSV1 SAVING     FLOW-JA-FACE ON UNIT   1030 AT TIME STEP     57, STRESS PERIOD      2
 UBDSV1 SAVING  STORAGE-AQUEOUS ON UNIT   1030 AT TIME STEP     57, STRESS PERIOD      2
 UBDSV06 SAVING  SOURCE-SINK MIX IN MODEL SVA_TM_T         PACKAGE SVA_TM_T        CONNECTED TO MODEL SVA_TM_T         PACKAGE SSM              ON UNIT   1030 AT TIME STEP     57, STRESS PERIOD      2

 CONCENTRATION WILL BE SAVED ON UNIT 1031 AT END OF TIME STEP   57, STRESS PERIOD    2


  MASS BUDGET FOR ENTIRE MODEL AT END OF TIME STEP   57, STRESS PERIOD   2
  ---------------------------------------------------------------------------------------------------

     CUMULATIVE MASS      M       RATES FOR THIS TIME STEP      M/T          PACKAGE NAME    
     ------------------                 ------------------------                     ----------------

           IN:                                      IN:
           ---                                      ---
     STORAGE-AQUEOUS =       2.6021E-05       STORAGE-AQUEOUS =       4.4225E-13     MST                              
                 WEL =           0.0000                   WEL =           0.0000     SSM_WEL1                         
                 WEL =           0.1570                   WEL =       5.0000E-04     SSM_WEL2                         

            TOTAL IN =           0.1570              TOTAL IN =       5.0000E-04

          OUT:                                     OUT:
          ----                                     ----
     STORAGE-AQUEOUS =       7.9786E-02       STORAGE-AQUEOUS =       1.9527E-04     MST                              
                 WEL =       7.7241E-02                   WEL =       3.0474E-04     SSM_WEL1                         
                 WEL =           0.0000                   WEL =           0.0000     SSM_WEL2                         

           TOTAL OUT =           0.1570             TOTAL OUT =       5.0001E-04

            IN - OUT =      -1.5089E-06              IN - OUT =      -9.7102E-09

 PERCENT DISCREPANCY =          -0.00     PERCENT DISCREPANCY =          -0.00




         TIME SUMMARY AT END OF TIME STEP   57 IN STRESS PERIOD    2
                    SECONDS     MINUTES      HOURS       DAYS        YEARS
                    -----------------------------------------------------------
   TIME STEP LENGTH 1.72800E+05  2880.0      48.000      2.0000     5.47570E-03
 STRESS PERIOD TIME 9.84960E+06 1.64160E+05  2736.0      114.00     0.31211    
         TOTAL TIME 2.71296E+07 4.52160E+05  7536.0      314.00     0.85969    


end timestep


start timestep kper="2" kstp="58" mode="normal"

 UBDSV1 SAVING     FLOW-JA-FACE ON UNIT   1030 AT TIME STEP     58, STRESS PERIOD      2
 UBDSV1 SAVING  STORAGE-AQUEOUS ON UNIT   1030 AT TIME STEP     58, STRESS PERIOD      2
 UBDSV06 SAVING  SOURCE-SINK MIX IN MODEL SVA_TM_T         PACKAGE SVA_TM_T        CONNECTED TO MODEL SVA_TM_T         PACKAGE SSM              ON UNIT   1030 AT TIME STEP     58, STRESS PERIOD      2

 CONCENTRATION WILL BE SAVED ON UNIT 1031 AT END OF TIME STEP   58, STRESS PERIOD    2


  MASS BUDGET FOR ENTIRE MODEL AT END OF TIME STEP   58, STRESS PERIOD   2
  ---------------------------------------------------------------------------------------------------

     CUMULATIVE MASS      M       RATES FOR THIS TIME STEP      M/T          PACKAGE NAME    
     ------------------                 ------------------------                     ----------------

           IN:                                      IN:
           ---                                      ---
     STORAGE-AQUEOUS =       2.6021E-05       STORAGE-AQUEOUS =       3.9746E-13     MST                              
                 WEL =           0.0000                   WEL =           0.0000     SSM_WEL1                         
                 WEL =           0.1580                   WEL =       5.0000E-04     SSM_WEL2                         

            TOTAL IN =           0.1580              TOTAL IN =       5.0000E-04

          OUT:                                     OUT:
          ----                                     ----
     STORAGE-AQUEOUS =       8.0176E-02       STORAGE-AQUEOUS =       1.9473E-04     MST                              
                 WEL =       7.7852E-02                   WEL =       3.0528E-04     SSM_WEL1                         
                 WEL =           0.0000                   WEL =           0.0000     SSM_WEL2                         

           TOTAL OUT =           0.1580             TOTAL OUT =       5.0001E-04

            IN - OUT =      -1.5280E-06              IN - OUT =      -9.5484E-09

 PERCENT DISCREPANCY =          -0.00     PERCENT DISCREPANCY =          -0.00




         TIME SUMMARY AT END OF TIME STEP   58 IN STRESS PERIOD    2
                    SECONDS     MINUTES      HOURS       DAYS        YEARS
                    -----------------------------------------------------------
   TIME STEP LENGTH 1.72800E+05  2880.0      48.000      2.0000     5.47570E-03
 STRESS PERIOD TIME 1.00224E+07 1.67040E+05  2784.0      116.00     0.31759    
         TOTAL TIME 2.73024E+07 4.55040E+05  7584.0      316.00     0.86516    


end timestep


start timestep kper="2" kstp="59" mode="normal"

 UBDSV1 SAVING     FLOW-JA-FACE ON UNIT   1030 AT TIME STEP     59, STRESS PERIOD      2
 UBDSV1 SAVING  STORAGE-AQUEOUS ON UNIT   1030 AT TIME STEP     59, STRESS PERIOD      2
 UBDSV06 SAVING  SOURCE-SINK MIX IN MODEL SVA_TM_T         PACKAGE SVA_TM_T        CONNECTED TO MODEL SVA_TM_T         PACKAGE SSM              ON UNIT   1030 AT TIME STEP     59, STRESS PERIOD      2

 CONCENTRATION WILL BE SAVED ON UNIT 1031 AT END OF TIME STEP   59, STRESS PERIOD    2


  MASS BUDGET FOR ENTIRE MODEL AT END OF TIME STEP   59, STRESS PERIOD   2
  ---------------------------------------------------------------------------------------------------

     CUMULATIVE MASS      M       RATES FOR THIS TIME STEP      M/T          PACKAGE NAME    
     ------------------                 ------------------------                     ----------------

           IN:                                      IN:
           ---                                      ---
     STORAGE-AQUEOUS =       2.6021E-05       STORAGE-AQUEOUS =       5.3165E-13     MST                              
                 WEL =           0.0000                   WEL =           0.0000     SSM_WEL1                         
                 WEL =           0.1590                   WEL =       5.0000E-04     SSM_WEL2                         

            TOTAL IN =           0.1590              TOTAL IN =       5.0000E-04

          OUT:                                     OUT:
          ----                                     ----
     STORAGE-AQUEOUS =       8.0564E-02       STORAGE-AQUEOUS =       1.9417E-04     MST                              
                 WEL =       7.8464E-02                   WEL =       3.0583E-04     SSM_WEL1                         
                 WEL =           0.0000                   WEL =           0.0000     SSM_WEL2                         

           TOTAL OUT =           0.1590             TOTAL OUT =       5.0001E-04

            IN - OUT =      -1.5469E-06              IN - OUT =      -9.4482E-09

 PERCENT DISCREPANCY =          -0.00     PERCENT DISCREPANCY =          -0.00




         TIME SUMMARY AT END OF TIME STEP   59 IN STRESS PERIOD    2
                    SECONDS     MINUTES      HOURS       DAYS        YEARS
                    -----------------------------------------------------------
   TIME STEP LENGTH 1.72800E+05  2880.0      48.000      2.0000     5.47570E-03
 STRESS PERIOD TIME 1.01952E+07 1.69920E+05  2832.0      118.00     0.32307    
         TOTAL TIME 2.74752E+07 4.57920E+05  7632.0      318.00     0.87064    


end timestep


start timestep kper="2" kstp="60" mode="normal"

 UBDSV1 SAVING     FLOW-JA-FACE ON UNIT   1030 AT TIME STEP     60, STRESS PERIOD      2
 UBDSV1 SAVING  STORAGE-AQUEOUS ON UNIT   1030 AT TIME STEP     60, STRESS PERIOD      2
 UBDSV06 SAVING  SOURCE-SINK MIX IN MODEL SVA_TM_T         PACKAGE SVA_TM_T        CONNECTED TO MODEL SVA_TM_T         PACKAGE SSM              ON UNIT   1030 AT TIME STEP     60, STRESS PERIOD      2

 CONCENTRATION WILL BE SAVED ON UNIT 1031 AT END OF TIME STEP   60, STRESS PERIOD    2


  MASS BUDGET FOR ENTIRE MODEL AT END OF TIME STEP   60, STRESS PERIOD   2
  ---------------------------------------------------------------------------------------------------

     CUMULATIVE MASS      M       RATES FOR THIS TIME STEP      M/T          PACKAGE NAME    
     ------------------                 ------------------------                     ----------------

           IN:                                      IN:
           ---                                      ---
     STORAGE-AQUEOUS =       2.6021E-05       STORAGE-AQUEOUS =       7.0299E-13     MST                              
                 WEL =           0.0000                   WEL =           0.0000     SSM_WEL1                         
                 WEL =           0.1600                   WEL =       5.0000E-04     SSM_WEL2                         

            TOTAL IN =           0.1600              TOTAL IN =       5.0000E-04

          OUT:                                     OUT:
          ----                                     ----
     STORAGE-AQUEOUS =       8.0951E-02       STORAGE-AQUEOUS =       1.9361E-04     MST                              
                 WEL =       7.9076E-02                   WEL =       3.0640E-04     SSM_WEL1                         
                 WEL =           0.0000                   WEL =           0.0000     SSM_WEL2                         

           TOTAL OUT =           0.1600             TOTAL OUT =       5.0001E-04

            IN - OUT =      -1.5655E-06              IN - OUT =      -9.3337E-09

 PERCENT DISCREPANCY =          -0.00     PERCENT DISCREPANCY =          -0.00




         TIME SUMMARY AT END OF TIME STEP   60 IN STRESS PERIOD    2
                    SECONDS     MINUTES      HOURS       DAYS        YEARS
                    -----------------------------------------------------------
   TIME STEP LENGTH 1.72800E+05  2880.0      48.000      2.0000     5.47570E-03
 STRESS PERIOD TIME 1.03680E+07 1.72800E+05  2880.0      120.00     0.32854    
         TOTAL TIME 2.76480E+07 4.60800E+05  7680.0      320.00     0.87611    


end timestep


start timestep kper="2" kstp="61" mode="normal"

 UBDSV1 SAVING     FLOW-JA-FACE ON UNIT   1030 AT TIME STEP     61, STRESS PERIOD      2
 UBDSV1 SAVING  STORAGE-AQUEOUS ON UNIT   1030 AT TIME STEP     61, STRESS PERIOD      2
 UBDSV06 SAVING  SOURCE-SINK MIX IN MODEL SVA_TM_T         PACKAGE SVA_TM_T        CONNECTED TO MODEL SVA_TM_T         PACKAGE SSM              ON UNIT   1030 AT TIME STEP     61, STRESS PERIOD      2

 CONCENTRATION WILL BE SAVED ON UNIT 1031 AT END OF TIME STEP   61, STRESS PERIOD    2


  MASS BUDGET FOR ENTIRE MODEL AT END OF TIME STEP   61, STRESS PERIOD   2
  ---------------------------------------------------------------------------------------------------

     CUMULATIVE MASS      M       RATES FOR THIS TIME STEP      M/T          PACKAGE NAME    
     ------------------                 ------------------------                     ----------------

           IN:                                      IN:
           ---                                      ---
     STORAGE-AQUEOUS =       2.6021E-05       STORAGE-AQUEOUS =       7.4663E-13     MST                              
                 WEL =           0.0000                   WEL =           0.0000     SSM_WEL1                         
                 WEL =           0.1610                   WEL =       5.0000E-04     SSM_WEL2                         

            TOTAL IN =           0.1610              TOTAL IN =       5.0000E-04

          OUT:                                     OUT:
          ----                                     ----
     STORAGE-AQUEOUS =       8.1337E-02       STORAGE-AQUEOUS =       1.9303E-04     MST                              
                 WEL =       7.9690E-02                   WEL =       3.0698E-04     SSM_WEL1                         
                 WEL =           0.0000                   WEL =           0.0000     SSM_WEL2                         

           TOTAL OUT =           0.1610             TOTAL OUT =       5.0001E-04

            IN - OUT =      -1.5838E-06              IN - OUT =      -9.1157E-09

 PERCENT DISCREPANCY =          -0.00     PERCENT DISCREPANCY =          -0.00




         TIME SUMMARY AT END OF TIME STEP   61 IN STRESS PERIOD    2
                    SECONDS     MINUTES      HOURS       DAYS        YEARS
                    -----------------------------------------------------------
   TIME STEP LENGTH 1.72800E+05  2880.0      48.000      2.0000     5.47570E-03
 STRESS PERIOD TIME 1.05408E+07 1.75680E+05  2928.0      122.00     0.33402    
         TOTAL TIME 2.78208E+07 4.63680E+05  7728.0      322.00     0.88159    


end timestep


start timestep kper="2" kstp="62" mode="normal"

 UBDSV1 SAVING     FLOW-JA-FACE ON UNIT   1030 AT TIME STEP     62, STRESS PERIOD      2
 UBDSV1 SAVING  STORAGE-AQUEOUS ON UNIT   1030 AT TIME STEP     62, STRESS PERIOD      2
 UBDSV06 SAVING  SOURCE-SINK MIX IN MODEL SVA_TM_T         PACKAGE SVA_TM_T        CONNECTED TO MODEL SVA_TM_T         PACKAGE SSM              ON UNIT   1030 AT TIME STEP     62, STRESS PERIOD      2

 CONCENTRATION WILL BE SAVED ON UNIT 1031 AT END OF TIME STEP   62, STRESS PERIOD    2


  MASS BUDGET FOR ENTIRE MODEL AT END OF TIME STEP   62, STRESS PERIOD   2
  ---------------------------------------------------------------------------------------------------

     CUMULATIVE MASS      M       RATES FOR THIS TIME STEP      M/T          PACKAGE NAME    
     ------------------                 ------------------------                     ----------------

           IN:                                      IN:
           ---                                      ---
     STORAGE-AQUEOUS =       2.6021E-05       STORAGE-AQUEOUS =       6.9475E-13     MST                              
                 WEL =           0.0000                   WEL =           0.0000     SSM_WEL1                         
                 WEL =           0.1620                   WEL =       5.0000E-04     SSM_WEL2                         

            TOTAL IN =           0.1620              TOTAL IN =       5.0000E-04

          OUT:                                     OUT:
          ----                                     ----
     STORAGE-AQUEOUS =       8.1722E-02       STORAGE-AQUEOUS =       1.9244E-04     MST                              
                 WEL =       8.0306E-02                   WEL =       3.0757E-04     SSM_WEL1                         
                 WEL =           0.0000                   WEL =           0.0000     SSM_WEL2                         

           TOTAL OUT =           0.1620             TOTAL OUT =       5.0001E-04

            IN - OUT =      -1.6017E-06              IN - OUT =      -8.9798E-09

 PERCENT DISCREPANCY =          -0.00     PERCENT DISCREPANCY =          -0.00




         TIME SUMMARY AT END OF TIME STEP   62 IN STRESS PERIOD    2
                    SECONDS     MINUTES      HOURS       DAYS        YEARS
                    -----------------------------------------------------------
   TIME STEP LENGTH 1.72800E+05  2880.0      48.000      2.0000     5.47570E-03
 STRESS PERIOD TIME 1.07136E+07 1.78560E+05  2976.0      124.00     0.33949    
         TOTAL TIME 2.79936E+07 4.66560E+05  7776.0      324.00     0.88706    


end timestep


start timestep kper="2" kstp="63" mode="normal"

 UBDSV1 SAVING     FLOW-JA-FACE ON UNIT   1030 AT TIME STEP     63, STRESS PERIOD      2
 UBDSV1 SAVING  STORAGE-AQUEOUS ON UNIT   1030 AT TIME STEP     63, STRESS PERIOD      2
 UBDSV06 SAVING  SOURCE-SINK MIX IN MODEL SVA_TM_T         PACKAGE SVA_TM_T        CONNECTED TO MODEL SVA_TM_T         PACKAGE SSM              ON UNIT   1030 AT TIME STEP     63, STRESS PERIOD      2

 CONCENTRATION WILL BE SAVED ON UNIT 1031 AT END OF TIME STEP   63, STRESS PERIOD    2


  MASS BUDGET FOR ENTIRE MODEL AT END OF TIME STEP   63, STRESS PERIOD   2
  ---------------------------------------------------------------------------------------------------

     CUMULATIVE MASS      M       RATES FOR THIS TIME STEP      M/T          PACKAGE NAME    
     ------------------                 ------------------------                     ----------------

           IN:                                      IN:
           ---                                      ---
     STORAGE-AQUEOUS =       2.6021E-05       STORAGE-AQUEOUS =       6.3364E-13     MST                              
                 WEL =           0.0000                   WEL =           0.0000     SSM_WEL1                         
                 WEL =           0.1630                   WEL =       5.0000E-04     SSM_WEL2                         

            TOTAL IN =           0.1630              TOTAL IN =       5.0000E-04

          OUT:                                     OUT:
          ----                                     ----
     STORAGE-AQUEOUS =       8.2106E-02       STORAGE-AQUEOUS =       1.9184E-04     MST                              
                 WEL =       8.0922E-02                   WEL =       3.0817E-04     SSM_WEL1                         
                 WEL =           0.0000                   WEL =           0.0000     SSM_WEL2                         

           TOTAL OUT =           0.1630             TOTAL OUT =       5.0001E-04

            IN - OUT =      -1.6194E-06              IN - OUT =      -8.8426E-09

 PERCENT DISCREPANCY =          -0.00     PERCENT DISCREPANCY =          -0.00




         TIME SUMMARY AT END OF TIME STEP   63 IN STRESS PERIOD    2
                    SECONDS     MINUTES      HOURS       DAYS        YEARS
                    -----------------------------------------------------------
   TIME STEP LENGTH 1.72800E+05  2880.0      48.000      2.0000     5.47570E-03
 STRESS PERIOD TIME 1.08864E+07 1.81440E+05  3024.0      126.00     0.34497    
         TOTAL TIME 2.81664E+07 4.69440E+05  7824.0      326.00     0.89254    


end timestep


start timestep kper="2" kstp="64" mode="normal"

 UBDSV1 SAVING     FLOW-JA-FACE ON UNIT   1030 AT TIME STEP     64, STRESS PERIOD      2
 UBDSV1 SAVING  STORAGE-AQUEOUS ON UNIT   1030 AT TIME STEP     64, STRESS PERIOD      2
 UBDSV06 SAVING  SOURCE-SINK MIX IN MODEL SVA_TM_T         PACKAGE SVA_TM_T        CONNECTED TO MODEL SVA_TM_T         PACKAGE SSM              ON UNIT   1030 AT TIME STEP     64, STRESS PERIOD      2

 CONCENTRATION WILL BE SAVED ON UNIT 1031 AT END OF TIME STEP   64, STRESS PERIOD    2


  MASS BUDGET FOR ENTIRE MODEL AT END OF TIME STEP   64, STRESS PERIOD   2
  ---------------------------------------------------------------------------------------------------

     CUMULATIVE MASS      M       RATES FOR THIS TIME STEP      M/T          PACKAGE NAME    
     ------------------                 ------------------------                     ----------------

           IN:                                      IN:
           ---                                      ---
     STORAGE-AQUEOUS =       2.6021E-05       STORAGE-AQUEOUS =       5.5847E-13     MST                              
                 WEL =           0.0000                   WEL =           0.0000     SSM_WEL1                         
                 WEL =           0.1640                   WEL =       5.0000E-04     SSM_WEL2                         

            TOTAL IN =           0.1640              TOTAL IN =       5.0000E-04

          OUT:                                     OUT:
          ----                                     ----
     STORAGE-AQUEOUS =       8.2488E-02       STORAGE-AQUEOUS =       1.9123E-04     MST                              
                 WEL =       8.1539E-02                   WEL =       3.0878E-04     SSM_WEL1                         
                 WEL =           0.0000                   WEL =           0.0000     SSM_WEL2                         

           TOTAL OUT =           0.1640             TOTAL OUT =       5.0001E-04

            IN - OUT =      -1.6368E-06              IN - OUT =      -8.6920E-09

 PERCENT DISCREPANCY =          -0.00     PERCENT DISCREPANCY =          -0.00




         TIME SUMMARY AT END OF TIME STEP   64 IN STRESS PERIOD    2
                    SECONDS     MINUTES      HOURS       DAYS        YEARS
                    -----------------------------------------------------------
   TIME STEP LENGTH 1.72800E+05  2880.0      48.000      2.0000     5.47570E-03
 STRESS PERIOD TIME 1.10592E+07 1.84320E+05  3072.0      128.00     0.35044    
         TOTAL TIME 2.83392E+07 4.72320E+05  7872.0      328.00     0.89802    


end timestep


start timestep kper="2" kstp="65" mode="normal"

 UBDSV1 SAVING     FLOW-JA-FACE ON UNIT   1030 AT TIME STEP     65, STRESS PERIOD      2
 UBDSV1 SAVING  STORAGE-AQUEOUS ON UNIT   1030 AT TIME STEP     65, STRESS PERIOD      2
 UBDSV06 SAVING  SOURCE-SINK MIX IN MODEL SVA_TM_T         PACKAGE SVA_TM_T        CONNECTED TO MODEL SVA_TM_T         PACKAGE SSM              ON UNIT   1030 AT TIME STEP     65, STRESS PERIOD      2

 CONCENTRATION WILL BE SAVED ON UNIT 1031 AT END OF TIME STEP   65, STRESS PERIOD    2


  MASS BUDGET FOR ENTIRE MODEL AT END OF TIME STEP   65, STRESS PERIOD   2
  ---------------------------------------------------------------------------------------------------

     CUMULATIVE MASS      M       RATES FOR THIS TIME STEP      M/T          PACKAGE NAME    
     ------------------                 ------------------------                     ----------------

           IN:                                      IN:
           ---                                      ---
     STORAGE-AQUEOUS =       2.6021E-05       STORAGE-AQUEOUS =       4.7448E-13     MST                              
                 WEL =           0.0000                   WEL =           0.0000     SSM_WEL1                         
                 WEL =           0.1650                   WEL =       5.0000E-04     SSM_WEL2                         

            TOTAL IN =           0.1650              TOTAL IN =       5.0000E-04

          OUT:                                     OUT:
          ----                                     ----
     STORAGE-AQUEOUS =       8.2869E-02       STORAGE-AQUEOUS =       1.9060E-04     MST                              
                 WEL =       8.2158E-02                   WEL =       3.0941E-04     SSM_WEL1                         
                 WEL =           0.0000                   WEL =           0.0000     SSM_WEL2                         

           TOTAL OUT =           0.1650             TOTAL OUT =       5.0001E-04

            IN - OUT =      -1.6540E-06              IN - OUT =      -8.5900E-09

 PERCENT DISCREPANCY =          -0.00     PERCENT DISCREPANCY =          -0.00




         TIME SUMMARY AT END OF TIME STEP   65 IN STRESS PERIOD    2
                    SECONDS     MINUTES      HOURS       DAYS        YEARS
                    -----------------------------------------------------------
   TIME STEP LENGTH 1.72800E+05  2880.0      48.000      2.0000     5.47570E-03
 STRESS PERIOD TIME 1.12320E+07 1.87200E+05  3120.0      130.00     0.35592    
         TOTAL TIME 2.85120E+07 4.75200E+05  7920.0      330.00     0.90349    


end timestep


start timestep kper="2" kstp="66" mode="normal"

 UBDSV1 SAVING     FLOW-JA-FACE ON UNIT   1030 AT TIME STEP     66, STRESS PERIOD      2
 UBDSV1 SAVING  STORAGE-AQUEOUS ON UNIT   1030 AT TIME STEP     66, STRESS PERIOD      2
 UBDSV06 SAVING  SOURCE-SINK MIX IN MODEL SVA_TM_T         PACKAGE SVA_TM_T        CONNECTED TO MODEL SVA_TM_T         PACKAGE SSM              ON UNIT   1030 AT TIME STEP     66, STRESS PERIOD      2

 CONCENTRATION WILL BE SAVED ON UNIT 1031 AT END OF TIME STEP   66, STRESS PERIOD    2


  MASS BUDGET FOR ENTIRE MODEL AT END OF TIME STEP   66, STRESS PERIOD   2
  ---------------------------------------------------------------------------------------------------

     CUMULATIVE MASS      M       RATES FOR THIS TIME STEP      M/T          PACKAGE NAME    
     ------------------                 ------------------------                     ----------------

           IN:                                      IN:
           ---                                      ---
     STORAGE-AQUEOUS =       2.6021E-05       STORAGE-AQUEOUS =       3.9586E-13     MST                              
                 WEL =           0.0000                   WEL =           0.0000     SSM_WEL1                         
                 WEL =           0.1660                   WEL =       5.0000E-04     SSM_WEL2                         

            TOTAL IN =           0.1660              TOTAL IN =       5.0000E-04

          OUT:                                     OUT:
          ----                                     ----
     STORAGE-AQUEOUS =       8.3249E-02       STORAGE-AQUEOUS =       1.8997E-04     MST                              
                 WEL =       8.2778E-02                   WEL =       3.1004E-04     SSM_WEL1                         
                 WEL =           0.0000                   WEL =           0.0000     SSM_WEL2                         

           TOTAL OUT =           0.1660             TOTAL OUT =       5.0001E-04

            IN - OUT =      -1.6708E-06              IN - OUT =      -8.4105E-09

 PERCENT DISCREPANCY =          -0.00     PERCENT DISCREPANCY =          -0.00




         TIME SUMMARY AT END OF TIME STEP   66 IN STRESS PERIOD    2
                    SECONDS     MINUTES      HOURS       DAYS        YEARS
                    -----------------------------------------------------------
   TIME STEP LENGTH 1.72800E+05  2880.0      48.000      2.0000     5.47570E-03
 STRESS PERIOD TIME 1.14048E+07 1.90080E+05  3168.0      132.00     0.36140    
         TOTAL TIME 2.86848E+07 4.78080E+05  7968.0      332.00     0.90897    


end timestep


start timestep kper="2" kstp="67" mode="normal"

 UBDSV1 SAVING     FLOW-JA-FACE ON UNIT   1030 AT TIME STEP     67, STRESS PERIOD      2
 UBDSV1 SAVING  STORAGE-AQUEOUS ON UNIT   1030 AT TIME STEP     67, STRESS PERIOD      2
 UBDSV06 SAVING  SOURCE-SINK MIX IN MODEL SVA_TM_T         PACKAGE SVA_TM_T        CONNECTED TO MODEL SVA_TM_T         PACKAGE SSM              ON UNIT   1030 AT TIME STEP     67, STRESS PERIOD      2

 CONCENTRATION WILL BE SAVED ON UNIT 1031 AT END OF TIME STEP   67, STRESS PERIOD    2


  MASS BUDGET FOR ENTIRE MODEL AT END OF TIME STEP   67, STRESS PERIOD   2
  ---------------------------------------------------------------------------------------------------

     CUMULATIVE MASS      M       RATES FOR THIS TIME STEP      M/T          PACKAGE NAME    
     ------------------                 ------------------------                     ----------------

           IN:                                      IN:
           ---                                      ---
     STORAGE-AQUEOUS =       2.6021E-05       STORAGE-AQUEOUS =       3.2512E-13     MST                              
                 WEL =           0.0000                   WEL =           0.0000     SSM_WEL1                         
                 WEL =           0.1670                   WEL =       5.0000E-04     SSM_WEL2                         

            TOTAL IN =           0.1670              TOTAL IN =       5.0000E-04

          OUT:                                     OUT:
          ----                                     ----
     STORAGE-AQUEOUS =       8.3628E-02       STORAGE-AQUEOUS =       1.8932E-04     MST                              
                 WEL =       8.3400E-02                   WEL =       3.1069E-04     SSM_WEL1                         
                 WEL =           0.0000                   WEL =           0.0000     SSM_WEL2                         

           TOTAL OUT =           0.1670             TOTAL OUT =       5.0001E-04

            IN - OUT =      -1.6873E-06              IN - OUT =      -8.2552E-09

 PERCENT DISCREPANCY =          -0.00     PERCENT DISCREPANCY =          -0.00




         TIME SUMMARY AT END OF TIME STEP   67 IN STRESS PERIOD    2
                    SECONDS     MINUTES      HOURS       DAYS        YEARS
                    -----------------------------------------------------------
   TIME STEP LENGTH 1.72800E+05  2880.0      48.000      2.0000     5.47570E-03
 STRESS PERIOD TIME 1.15776E+07 1.92960E+05  3216.0      134.00     0.36687    
         TOTAL TIME 2.88576E+07 4.80960E+05  8016.0      334.00     0.91444    


end timestep


start timestep kper="2" kstp="68" mode="normal"

 UBDSV1 SAVING     FLOW-JA-FACE ON UNIT   1030 AT TIME STEP     68, STRESS PERIOD      2
 UBDSV1 SAVING  STORAGE-AQUEOUS ON UNIT   1030 AT TIME STEP     68, STRESS PERIOD      2
 UBDSV06 SAVING  SOURCE-SINK MIX IN MODEL SVA_TM_T         PACKAGE SVA_TM_T        CONNECTED TO MODEL SVA_TM_T         PACKAGE SSM              ON UNIT   1030 AT TIME STEP     68, STRESS PERIOD      2

 CONCENTRATION WILL BE SAVED ON UNIT 1031 AT END OF TIME STEP   68, STRESS PERIOD    2


  MASS BUDGET FOR ENTIRE MODEL AT END OF TIME STEP   68, STRESS PERIOD   2
  ---------------------------------------------------------------------------------------------------

     CUMULATIVE MASS      M       RATES FOR THIS TIME STEP      M/T          PACKAGE NAME    
     ------------------                 ------------------------                     ----------------

           IN:                                      IN:
           ---                                      ---
     STORAGE-AQUEOUS =       2.6021E-05       STORAGE-AQUEOUS =       2.8709E-13     MST                              
                 WEL =           0.0000                   WEL =           0.0000     SSM_WEL1                         
                 WEL =           0.1680                   WEL =       5.0000E-04     SSM_WEL2                         

            TOTAL IN =           0.1680              TOTAL IN =       5.0000E-04

          OUT:                                     OUT:
          ----                                     ----
     STORAGE-AQUEOUS =       8.4005E-02       STORAGE-AQUEOUS =       1.8866E-04     MST                              
                 WEL =       8.4022E-02                   WEL =       3.1134E-04     SSM_WEL1                         
                 WEL =           0.0000                   WEL =           0.0000     SSM_WEL2                         

           TOTAL OUT =           0.1680             TOTAL OUT =       5.0001E-04

            IN - OUT =      -1.7038E-06              IN - OUT =      -8.2486E-09

 PERCENT DISCREPANCY =          -0.00     PERCENT DISCREPANCY =          -0.00




         TIME SUMMARY AT END OF TIME STEP   68 IN STRESS PERIOD    2
                    SECONDS     MINUTES      HOURS       DAYS        YEARS
                    -----------------------------------------------------------
   TIME STEP LENGTH 1.72800E+05  2880.0      48.000      2.0000     5.47570E-03
 STRESS PERIOD TIME 1.17504E+07 1.95840E+05  3264.0      136.00     0.37235    
         TOTAL TIME 2.90304E+07 4.83840E+05  8064.0      336.00     0.91992    


end timestep


start timestep kper="2" kstp="69" mode="normal"

 UBDSV1 SAVING     FLOW-JA-FACE ON UNIT   1030 AT TIME STEP     69, STRESS PERIOD      2
 UBDSV1 SAVING  STORAGE-AQUEOUS ON UNIT   1030 AT TIME STEP     69, STRESS PERIOD      2
 UBDSV06 SAVING  SOURCE-SINK MIX IN MODEL SVA_TM_T         PACKAGE SVA_TM_T        CONNECTED TO MODEL SVA_TM_T         PACKAGE SSM              ON UNIT   1030 AT TIME STEP     69, STRESS PERIOD      2

 CONCENTRATION WILL BE SAVED ON UNIT 1031 AT END OF TIME STEP   69, STRESS PERIOD    2


  MASS BUDGET FOR ENTIRE MODEL AT END OF TIME STEP   69, STRESS PERIOD   2
  ---------------------------------------------------------------------------------------------------

     CUMULATIVE MASS      M       RATES FOR THIS TIME STEP      M/T          PACKAGE NAME    
     ------------------                 ------------------------                     ----------------

           IN:                                      IN:
           ---                                      ---
     STORAGE-AQUEOUS =       2.6021E-05       STORAGE-AQUEOUS =       2.5500E-13     MST                              
                 WEL =           0.0000                   WEL =           0.0000     SSM_WEL1                         
                 WEL =           0.1690                   WEL =       5.0000E-04     SSM_WEL2                         

            TOTAL IN =           0.1690              TOTAL IN =       5.0000E-04

          OUT:                                     OUT:
          ----                                     ----
     STORAGE-AQUEOUS =       8.4381E-02       STORAGE-AQUEOUS =       1.8800E-04     MST                              
                 WEL =       8.4646E-02                   WEL =       3.1201E-04     SSM_WEL1                         
                 WEL =           0.0000                   WEL =           0.0000     SSM_WEL2                         

           TOTAL OUT =           0.1690             TOTAL OUT =       5.0001E-04

            IN - OUT =      -1.7201E-06              IN - OUT =      -8.1451E-09

 PERCENT DISCREPANCY =          -0.00     PERCENT DISCREPANCY =          -0.00




         TIME SUMMARY AT END OF TIME STEP   69 IN STRESS PERIOD    2
                    SECONDS     MINUTES      HOURS       DAYS        YEARS
                    -----------------------------------------------------------
   TIME STEP LENGTH 1.72800E+05  2880.0      48.000      2.0000     5.47570E-03
 STRESS PERIOD TIME 1.19232E+07 1.98720E+05  3312.0      138.00     0.37782    
         TOTAL TIME 2.92032E+07 4.86720E+05  8112.0      338.00     0.92539    


end timestep


start timestep kper="2" kstp="70" mode="normal"

 UBDSV1 SAVING     FLOW-JA-FACE ON UNIT   1030 AT TIME STEP     70, STRESS PERIOD      2
 UBDSV1 SAVING  STORAGE-AQUEOUS ON UNIT   1030 AT TIME STEP     70, STRESS PERIOD      2
 UBDSV06 SAVING  SOURCE-SINK MIX IN MODEL SVA_TM_T         PACKAGE SVA_TM_T        CONNECTED TO MODEL SVA_TM_T         PACKAGE SSM              ON UNIT   1030 AT TIME STEP     70, STRESS PERIOD      2

 CONCENTRATION WILL BE SAVED ON UNIT 1031 AT END OF TIME STEP   70, STRESS PERIOD    2


  MASS BUDGET FOR ENTIRE MODEL AT END OF TIME STEP   70, STRESS PERIOD   2
  ---------------------------------------------------------------------------------------------------

     CUMULATIVE MASS      M       RATES FOR THIS TIME STEP      M/T          PACKAGE NAME    
     ------------------                 ------------------------                     ----------------

           IN:                                      IN:
           ---                                      ---
     STORAGE-AQUEOUS =       2.6021E-05       STORAGE-AQUEOUS =       2.2633E-13     MST                              
                 WEL =           0.0000                   WEL =           0.0000     SSM_WEL1                         
                 WEL =           0.1700                   WEL =       5.0000E-04     SSM_WEL2                         

            TOTAL IN =           0.1700              TOTAL IN =       5.0000E-04

          OUT:                                     OUT:
          ----                                     ----
     STORAGE-AQUEOUS =       8.4756E-02       STORAGE-AQUEOUS =       1.8732E-04     MST                              
                 WEL =       8.5272E-02                   WEL =       3.1269E-04     SSM_WEL1                         
                 WEL =           0.0000                   WEL =           0.0000     SSM_WEL2                         

           TOTAL OUT =           0.1700             TOTAL OUT =       5.0001E-04

            IN - OUT =      -1.7363E-06              IN - OUT =      -8.1007E-09

 PERCENT DISCREPANCY =          -0.00     PERCENT DISCREPANCY =          -0.00




         TIME SUMMARY AT END OF TIME STEP   70 IN STRESS PERIOD    2
                    SECONDS     MINUTES      HOURS       DAYS        YEARS
                    -----------------------------------------------------------
   TIME STEP LENGTH 1.72800E+05  2880.0      48.000      2.0000     5.47570E-03
 STRESS PERIOD TIME 1.20960E+07 2.01600E+05  3360.0      140.00     0.38330    
         TOTAL TIME 2.93760E+07 4.89600E+05  8160.0      340.00     0.93087    


end timestep


start timestep kper="2" kstp="71" mode="normal"

 UBDSV1 SAVING     FLOW-JA-FACE ON UNIT   1030 AT TIME STEP     71, STRESS PERIOD      2
 UBDSV1 SAVING  STORAGE-AQUEOUS ON UNIT   1030 AT TIME STEP     71, STRESS PERIOD      2
 UBDSV06 SAVING  SOURCE-SINK MIX IN MODEL SVA_TM_T         PACKAGE SVA_TM_T        CONNECTED TO MODEL SVA_TM_T         PACKAGE SSM              ON UNIT   1030 AT TIME STEP     71, STRESS PERIOD      2

 CONCENTRATION WILL BE SAVED ON UNIT 1031 AT END OF TIME STEP   71, STRESS PERIOD    2


  MASS BUDGET FOR ENTIRE MODEL AT END OF TIME STEP   71, STRESS PERIOD   2
  ---------------------------------------------------------------------------------------------------

     CUMULATIVE MASS      M       RATES FOR THIS TIME STEP      M/T          PACKAGE NAME    
     ------------------                 ------------------------                     ----------------

           IN:                                      IN:
           ---                                      ---
     STORAGE-AQUEOUS =       2.6021E-05       STORAGE-AQUEOUS =       1.9793E-13     MST                              
                 WEL =           0.0000                   WEL =           0.0000     SSM_WEL1                         
                 WEL =           0.1710                   WEL =       5.0000E-04     SSM_WEL2                         

            TOTAL IN =           0.1710              TOTAL IN =       5.0000E-04

          OUT:                                     OUT:
          ----                                     ----
     STORAGE-AQUEOUS =       8.5129E-02       STORAGE-AQUEOUS =       1.8664E-04     MST                              
                 WEL =       8.5899E-02                   WEL =       3.1337E-04     SSM_WEL1                         
                 WEL =           0.0000                   WEL =           0.0000     SSM_WEL2                         

           TOTAL OUT =           0.1710             TOTAL OUT =       5.0001E-04

            IN - OUT =      -1.7522E-06              IN - OUT =      -7.9706E-09

 PERCENT DISCREPANCY =          -0.00     PERCENT DISCREPANCY =          -0.00




         TIME SUMMARY AT END OF TIME STEP   71 IN STRESS PERIOD    2
                    SECONDS     MINUTES      HOURS       DAYS        YEARS
                    -----------------------------------------------------------
   TIME STEP LENGTH 1.72800E+05  2880.0      48.000      2.0000     5.47570E-03
 STRESS PERIOD TIME 1.22688E+07 2.04480E+05  3408.0      142.00     0.38877    
         TOTAL TIME 2.95488E+07 4.92480E+05  8208.0      342.00     0.93634    


end timestep


start timestep kper="2" kstp="72" mode="normal"

 UBDSV1 SAVING     FLOW-JA-FACE ON UNIT   1030 AT TIME STEP     72, STRESS PERIOD      2
 UBDSV1 SAVING  STORAGE-AQUEOUS ON UNIT   1030 AT TIME STEP     72, STRESS PERIOD      2
 UBDSV06 SAVING  SOURCE-SINK MIX IN MODEL SVA_TM_T         PACKAGE SVA_TM_T        CONNECTED TO MODEL SVA_TM_T         PACKAGE SSM              ON UNIT   1030 AT TIME STEP     72, STRESS PERIOD      2

 CONCENTRATION WILL BE SAVED ON UNIT 1031 AT END OF TIME STEP   72, STRESS PERIOD    2


  MASS BUDGET FOR ENTIRE MODEL AT END OF TIME STEP   72, STRESS PERIOD   2
  ---------------------------------------------------------------------------------------------------

     CUMULATIVE MASS      M       RATES FOR THIS TIME STEP      M/T          PACKAGE NAME    
     ------------------                 ------------------------                     ----------------

           IN:                                      IN:
           ---                                      ---
     STORAGE-AQUEOUS =       2.6021E-05       STORAGE-AQUEOUS =       1.8978E-13     MST                              
                 WEL =           0.0000                   WEL =           0.0000     SSM_WEL1                         
                 WEL =           0.1720                   WEL =       5.0000E-04     SSM_WEL2                         

            TOTAL IN =           0.1720              TOTAL IN =       5.0000E-04

          OUT:                                     OUT:
          ----                                     ----
     STORAGE-AQUEOUS =       8.5501E-02       STORAGE-AQUEOUS =       1.8594E-04     MST                              
                 WEL =       8.6527E-02                   WEL =       3.1407E-04     SSM_WEL1                         
                 WEL =           0.0000                   WEL =           0.0000     SSM_WEL2                         

           TOTAL OUT =           0.1720             TOTAL OUT =       5.0001E-04

            IN - OUT =      -1.7681E-06              IN - OUT =      -7.9039E-09

 PERCENT DISCREPANCY =          -0.00     PERCENT DISCREPANCY =          -0.00




         TIME SUMMARY AT END OF TIME STEP   72 IN STRESS PERIOD    2
                    SECONDS     MINUTES      HOURS       DAYS        YEARS
                    -----------------------------------------------------------
   TIME STEP LENGTH 1.72800E+05  2880.0      48.000      2.0000     5.47570E-03
 STRESS PERIOD TIME 1.24416E+07 2.07360E+05  3456.0      144.00     0.39425    
         TOTAL TIME 2.97216E+07 4.95360E+05  8256.0      344.00     0.94182    


end timestep


start timestep kper="2" kstp="73" mode="normal"

 UBDSV1 SAVING     FLOW-JA-FACE ON UNIT   1030 AT TIME STEP     73, STRESS PERIOD      2
 UBDSV1 SAVING  STORAGE-AQUEOUS ON UNIT   1030 AT TIME STEP     73, STRESS PERIOD      2
 UBDSV06 SAVING  SOURCE-SINK MIX IN MODEL SVA_TM_T         PACKAGE SVA_TM_T        CONNECTED TO MODEL SVA_TM_T         PACKAGE SSM              ON UNIT   1030 AT TIME STEP     73, STRESS PERIOD      2

 CONCENTRATION WILL BE SAVED ON UNIT 1031 AT END OF TIME STEP   73, STRESS PERIOD    2


  MASS BUDGET FOR ENTIRE MODEL AT END OF TIME STEP   73, STRESS PERIOD   2
  ---------------------------------------------------------------------------------------------------

     CUMULATIVE MASS      M       RATES FOR THIS TIME STEP      M/T          PACKAGE NAME    
     ------------------                 ------------------------                     ----------------

           IN:                                      IN:
           ---                                      ---
     STORAGE-AQUEOUS =       2.6021E-05       STORAGE-AQUEOUS =       2.0394E-13     MST                              
                 WEL =           0.0000                   WEL =           0.0000     SSM_WEL1                         
                 WEL =           0.1730                   WEL =       5.0000E-04     SSM_WEL2                         

            TOTAL IN =           0.1730              TOTAL IN =       5.0000E-04

          OUT:                                     OUT:
          ----                                     ----
     STORAGE-AQUEOUS =       8.5872E-02       STORAGE-AQUEOUS =       1.8524E-04     MST                              
                 WEL =       8.7156E-02                   WEL =       3.1476E-04     SSM_WEL1                         
                 WEL =           0.0000                   WEL =           0.0000     SSM_WEL2                         

           TOTAL OUT =           0.1730             TOTAL OUT =       5.0001E-04

            IN - OUT =      -1.7837E-06              IN - OUT =      -7.8209E-09

 PERCENT DISCREPANCY =          -0.00     PERCENT DISCREPANCY =          -0.00




         TIME SUMMARY AT END OF TIME STEP   73 IN STRESS PERIOD    2
                    SECONDS     MINUTES      HOURS       DAYS        YEARS
                    -----------------------------------------------------------
   TIME STEP LENGTH 1.72800E+05  2880.0      48.000      2.0000     5.47570E-03
 STRESS PERIOD TIME 1.26144E+07 2.10240E+05  3504.0      146.00     0.39973    
         TOTAL TIME 2.98944E+07 4.98240E+05  8304.0      346.00     0.94730    


end timestep


start timestep kper="2" kstp="74" mode="normal"

 UBDSV1 SAVING     FLOW-JA-FACE ON UNIT   1030 AT TIME STEP     74, STRESS PERIOD      2
 UBDSV1 SAVING  STORAGE-AQUEOUS ON UNIT   1030 AT TIME STEP     74, STRESS PERIOD      2
 UBDSV06 SAVING  SOURCE-SINK MIX IN MODEL SVA_TM_T         PACKAGE SVA_TM_T        CONNECTED TO MODEL SVA_TM_T         PACKAGE SSM              ON UNIT   1030 AT TIME STEP     74, STRESS PERIOD      2

 CONCENTRATION WILL BE SAVED ON UNIT 1031 AT END OF TIME STEP   74, STRESS PERIOD    2


  MASS BUDGET FOR ENTIRE MODEL AT END OF TIME STEP   74, STRESS PERIOD   2
  ---------------------------------------------------------------------------------------------------

     CUMULATIVE MASS      M       RATES FOR THIS TIME STEP      M/T          PACKAGE NAME    
     ------------------                 ------------------------                     ----------------

           IN:                                      IN:
           ---                                      ---
     STORAGE-AQUEOUS =       2.6021E-05       STORAGE-AQUEOUS =       2.0655E-13     MST                              
                 WEL =           0.0000                   WEL =           0.0000     SSM_WEL1                         
                 WEL =           0.1740                   WEL =       5.0000E-04     SSM_WEL2                         

            TOTAL IN =           0.1740              TOTAL IN =       5.0000E-04

          OUT:                                     OUT:
          ----                                     ----
     STORAGE-AQUEOUS =       8.6241E-02       STORAGE-AQUEOUS =       1.8454E-04     MST                              
                 WEL =       8.7787E-02                   WEL =       3.1547E-04     SSM_WEL1                         
                 WEL =           0.0000                   WEL =           0.0000     SSM_WEL2                         

           TOTAL OUT =           0.1740             TOTAL OUT =       5.0001E-04

            IN - OUT =      -1.7991E-06              IN - OUT =      -7.7044E-09

 PERCENT DISCREPANCY =          -0.00     PERCENT DISCREPANCY =          -0.00




         TIME SUMMARY AT END OF TIME STEP   74 IN STRESS PERIOD    2
                    SECONDS     MINUTES      HOURS       DAYS        YEARS
                    -----------------------------------------------------------
   TIME STEP LENGTH 1.72800E+05  2880.0      48.000      2.0000     5.47570E-03
 STRESS PERIOD TIME 1.27872E+07 2.13120E+05  3552.0      148.00     0.40520    
         TOTAL TIME 3.00672E+07 5.01120E+05  8352.0      348.00     0.95277    


end timestep


start timestep kper="2" kstp="75" mode="normal"

 UBDSV1 SAVING     FLOW-JA-FACE ON UNIT   1030 AT TIME STEP     75, STRESS PERIOD      2
 UBDSV1 SAVING  STORAGE-AQUEOUS ON UNIT   1030 AT TIME STEP     75, STRESS PERIOD      2
 UBDSV06 SAVING  SOURCE-SINK MIX IN MODEL SVA_TM_T         PACKAGE SVA_TM_T        CONNECTED TO MODEL SVA_TM_T         PACKAGE SSM              ON UNIT   1030 AT TIME STEP     75, STRESS PERIOD      2

 CONCENTRATION WILL BE SAVED ON UNIT 1031 AT END OF TIME STEP   75, STRESS PERIOD    2


  MASS BUDGET FOR ENTIRE MODEL AT END OF TIME STEP   75, STRESS PERIOD   2
  ---------------------------------------------------------------------------------------------------

     CUMULATIVE MASS      M       RATES FOR THIS TIME STEP      M/T          PACKAGE NAME    
     ------------------                 ------------------------                     ----------------

           IN:                                      IN:
           ---                                      ---
     STORAGE-AQUEOUS =       2.6021E-05       STORAGE-AQUEOUS =       2.0017E-13     MST                              
                 WEL =           0.0000                   WEL =           0.0000     SSM_WEL1                         
                 WEL =           0.1750                   WEL =       5.0000E-04     SSM_WEL2                         

            TOTAL IN =           0.1750              TOTAL IN =       5.0000E-04

          OUT:                                     OUT:
          ----                                     ----
     STORAGE-AQUEOUS =       8.6608E-02       STORAGE-AQUEOUS =       1.8383E-04     MST                              
                 WEL =       8.8419E-02                   WEL =       3.1618E-04     SSM_WEL1                         
                 WEL =           0.0000                   WEL =           0.0000     SSM_WEL2                         

           TOTAL OUT =           0.1750             TOTAL OUT =       5.0001E-04

            IN - OUT =      -1.8142E-06              IN - OUT =      -7.5559E-09

 PERCENT DISCREPANCY =          -0.00     PERCENT DISCREPANCY =          -0.00




         TIME SUMMARY AT END OF TIME STEP   75 IN STRESS PERIOD    2
                    SECONDS     MINUTES      HOURS       DAYS        YEARS
                    -----------------------------------------------------------
   TIME STEP LENGTH 1.72800E+05  2880.0      48.000      2.0000     5.47570E-03
 STRESS PERIOD TIME 1.29600E+07 2.16000E+05  3600.0      150.00     0.41068    
         TOTAL TIME 3.02400E+07 5.04000E+05  8400.0      350.00     0.95825    


end timestep


start timestep kper="2" kstp="76" mode="normal"

